*SPEF "ieee 1481-1999"
*DESIGN "tt_mux"
*DATE "11:11:11 Fri 11 11, 1111"
*VENDOR "OpenRCX"
*PROGRAM "Parallel Extraction"
*VERSION "1.0"
*DESIGN_FLOW "NAME_SCOPE LOCAL" "PIN_CAP NONE"
*DIVIDER /
*DELIMITER :
*BUS_DELIMITER []
*T_UNIT 1 NS
*C_UNIT 1 PF
*R_UNIT 1 OHM
*L_UNIT 1 HENRY

*NAME_MAP
*3 addr[0]
*4 addr[1]
*5 addr[2]
*6 addr[3]
*7 k_one
*8 k_zero
*9 spine_iw[0]
*10 spine_iw[10]
*11 spine_iw[11]
*12 spine_iw[12]
*13 spine_iw[13]
*14 spine_iw[14]
*15 spine_iw[15]
*16 spine_iw[16]
*17 spine_iw[17]
*18 spine_iw[18]
*19 spine_iw[19]
*20 spine_iw[1]
*21 spine_iw[20]
*22 spine_iw[21]
*23 spine_iw[22]
*24 spine_iw[23]
*25 spine_iw[24]
*26 spine_iw[25]
*27 spine_iw[26]
*28 spine_iw[27]
*29 spine_iw[28]
*30 spine_iw[29]
*31 spine_iw[2]
*32 spine_iw[3]
*33 spine_iw[4]
*34 spine_iw[5]
*35 spine_iw[6]
*36 spine_iw[7]
*37 spine_iw[8]
*38 spine_iw[9]
*39 tie_spine_guard_I\[0\]\.lo
*40 tbuf_spine_ow_I\[9\]\.z
*41 tbuf_spine_ow_I\[10\]\.z
*42 tbuf_spine_ow_I\[11\]\.z
*43 tbuf_spine_ow_I\[12\]\.z
*44 tbuf_spine_ow_I\[13\]\.z
*45 tbuf_spine_ow_I\[14\]\.z
*46 tbuf_spine_ow_I\[15\]\.z
*47 tbuf_spine_ow_I\[16\]\.z
*48 tbuf_spine_ow_I\[17\]\.z
*49 tbuf_spine_ow_I\[18\]\.z
*50 tbuf_spine_ow_I\[0\]\.z
*51 tbuf_spine_ow_I\[19\]\.z
*52 tbuf_spine_ow_I\[20\]\.z
*53 tbuf_spine_ow_I\[21\]\.z
*54 tbuf_spine_ow_I\[22\]\.z
*55 tbuf_spine_ow_I\[23\]\.z
*56 tie_spine_guard_I\[1\]\.lo
*57 tbuf_spine_ow_I\[1\]\.z
*58 tbuf_spine_ow_I\[2\]\.z
*59 tbuf_spine_ow_I\[3\]\.z
*60 tbuf_spine_ow_I\[4\]\.z
*61 tbuf_spine_ow_I\[5\]\.z
*62 tbuf_spine_ow_I\[6\]\.z
*63 tbuf_spine_ow_I\[7\]\.z
*64 tbuf_spine_ow_I\[8\]\.z
*65 block\[0\]\.zbuf_ena_I\.z
*66 block\[10\]\.zbuf_ena_I\.z
*67 block\[11\]\.zbuf_ena_I\.z
*68 block\[12\]\.zbuf_ena_I\.z
*69 block\[13\]\.zbuf_ena_I\.z
*70 block\[14\]\.zbuf_ena_I\.z
*71 block\[15\]\.zbuf_ena_I\.z
*72 block\[1\]\.zbuf_ena_I\.z
*73 block\[2\]\.zbuf_ena_I\.z
*74 block\[3\]\.zbuf_ena_I\.z
*75 block\[4\]\.zbuf_ena_I\.z
*76 block\[5\]\.zbuf_ena_I\.z
*77 block\[6\]\.zbuf_ena_I\.z
*78 block\[7\]\.zbuf_ena_I\.z
*79 block\[8\]\.zbuf_ena_I\.z
*80 block\[9\]\.zbuf_ena_I\.z
*81 block\[0\]\.zbuf_bot_iw_I\[0\]\.z
*82 block\[5\]\.zbuf_bot_iw_I\[10\]\.z
*83 block\[5\]\.zbuf_bot_iw_I\[11\]\.z
*84 block\[5\]\.zbuf_bot_iw_I\[12\]\.z
*85 block\[5\]\.zbuf_bot_iw_I\[13\]\.z
*86 block\[5\]\.zbuf_bot_iw_I\[14\]\.z
*87 block\[5\]\.zbuf_bot_iw_I\[15\]\.z
*88 block\[5\]\.zbuf_bot_iw_I\[16\]\.z
*89 block\[5\]\.zbuf_bot_iw_I\[17\]\.z
*90 block\[6\]\.zbuf_bot_iw_I\[0\]\.z
*91 block\[6\]\.zbuf_bot_iw_I\[1\]\.z
*92 block\[0\]\.zbuf_bot_iw_I\[10\]\.z
*93 block\[6\]\.zbuf_bot_iw_I\[2\]\.z
*94 block\[6\]\.zbuf_bot_iw_I\[3\]\.z
*95 block\[6\]\.zbuf_bot_iw_I\[4\]\.z
*96 block\[6\]\.zbuf_bot_iw_I\[5\]\.z
*97 block\[6\]\.zbuf_bot_iw_I\[6\]\.z
*98 block\[6\]\.zbuf_bot_iw_I\[7\]\.z
*99 block\[6\]\.zbuf_bot_iw_I\[8\]\.z
*100 block\[6\]\.zbuf_bot_iw_I\[9\]\.z
*101 block\[6\]\.zbuf_bot_iw_I\[10\]\.z
*102 block\[6\]\.zbuf_bot_iw_I\[11\]\.z
*103 block\[0\]\.zbuf_bot_iw_I\[11\]\.z
*104 block\[6\]\.zbuf_bot_iw_I\[12\]\.z
*105 block\[6\]\.zbuf_bot_iw_I\[13\]\.z
*106 block\[6\]\.zbuf_bot_iw_I\[14\]\.z
*107 block\[6\]\.zbuf_bot_iw_I\[15\]\.z
*108 block\[6\]\.zbuf_bot_iw_I\[16\]\.z
*109 block\[6\]\.zbuf_bot_iw_I\[17\]\.z
*110 block\[7\]\.zbuf_bot_iw_I\[0\]\.z
*111 block\[7\]\.zbuf_bot_iw_I\[1\]\.z
*112 block\[7\]\.zbuf_bot_iw_I\[2\]\.z
*113 block\[7\]\.zbuf_bot_iw_I\[3\]\.z
*114 block\[0\]\.zbuf_bot_iw_I\[12\]\.z
*115 block\[7\]\.zbuf_bot_iw_I\[4\]\.z
*116 block\[7\]\.zbuf_bot_iw_I\[5\]\.z
*117 block\[7\]\.zbuf_bot_iw_I\[6\]\.z
*118 block\[7\]\.zbuf_bot_iw_I\[7\]\.z
*119 block\[7\]\.zbuf_bot_iw_I\[8\]\.z
*120 block\[7\]\.zbuf_bot_iw_I\[9\]\.z
*121 block\[7\]\.zbuf_bot_iw_I\[10\]\.z
*122 block\[7\]\.zbuf_bot_iw_I\[11\]\.z
*123 block\[7\]\.zbuf_bot_iw_I\[12\]\.z
*124 block\[7\]\.zbuf_bot_iw_I\[13\]\.z
*125 block\[0\]\.zbuf_bot_iw_I\[13\]\.z
*126 block\[7\]\.zbuf_bot_iw_I\[14\]\.z
*127 block\[7\]\.zbuf_bot_iw_I\[15\]\.z
*128 block\[7\]\.zbuf_bot_iw_I\[16\]\.z
*129 block\[7\]\.zbuf_bot_iw_I\[17\]\.z
*130 block\[8\]\.zbuf_bot_iw_I\[0\]\.z
*131 block\[8\]\.zbuf_bot_iw_I\[1\]\.z
*132 block\[8\]\.zbuf_bot_iw_I\[2\]\.z
*133 block\[8\]\.zbuf_bot_iw_I\[3\]\.z
*134 block\[8\]\.zbuf_bot_iw_I\[4\]\.z
*135 block\[8\]\.zbuf_bot_iw_I\[5\]\.z
*136 block\[0\]\.zbuf_bot_iw_I\[14\]\.z
*137 block\[8\]\.zbuf_bot_iw_I\[6\]\.z
*138 block\[8\]\.zbuf_bot_iw_I\[7\]\.z
*139 block\[8\]\.zbuf_bot_iw_I\[8\]\.z
*140 block\[8\]\.zbuf_bot_iw_I\[9\]\.z
*141 block\[8\]\.zbuf_bot_iw_I\[10\]\.z
*142 block\[8\]\.zbuf_bot_iw_I\[11\]\.z
*143 block\[8\]\.zbuf_bot_iw_I\[12\]\.z
*144 block\[8\]\.zbuf_bot_iw_I\[13\]\.z
*145 block\[8\]\.zbuf_bot_iw_I\[14\]\.z
*146 block\[8\]\.zbuf_bot_iw_I\[15\]\.z
*147 block\[0\]\.zbuf_bot_iw_I\[15\]\.z
*148 block\[8\]\.zbuf_bot_iw_I\[16\]\.z
*149 block\[8\]\.zbuf_bot_iw_I\[17\]\.z
*150 block\[9\]\.zbuf_bot_iw_I\[0\]\.z
*151 block\[9\]\.zbuf_bot_iw_I\[1\]\.z
*152 block\[9\]\.zbuf_bot_iw_I\[2\]\.z
*153 block\[9\]\.zbuf_bot_iw_I\[3\]\.z
*154 block\[9\]\.zbuf_bot_iw_I\[4\]\.z
*155 block\[9\]\.zbuf_bot_iw_I\[5\]\.z
*156 block\[9\]\.zbuf_bot_iw_I\[6\]\.z
*157 block\[9\]\.zbuf_bot_iw_I\[7\]\.z
*158 block\[0\]\.zbuf_bot_iw_I\[16\]\.z
*159 block\[9\]\.zbuf_bot_iw_I\[8\]\.z
*160 block\[9\]\.zbuf_bot_iw_I\[9\]\.z
*161 block\[9\]\.zbuf_bot_iw_I\[10\]\.z
*162 block\[9\]\.zbuf_bot_iw_I\[11\]\.z
*163 block\[9\]\.zbuf_bot_iw_I\[12\]\.z
*164 block\[9\]\.zbuf_bot_iw_I\[13\]\.z
*165 block\[9\]\.zbuf_bot_iw_I\[14\]\.z
*166 block\[9\]\.zbuf_bot_iw_I\[15\]\.z
*167 block\[9\]\.zbuf_bot_iw_I\[16\]\.z
*168 block\[9\]\.zbuf_bot_iw_I\[17\]\.z
*169 block\[0\]\.zbuf_bot_iw_I\[17\]\.z
*170 block\[10\]\.zbuf_bot_iw_I\[0\]\.z
*171 block\[10\]\.zbuf_bot_iw_I\[1\]\.z
*172 block\[10\]\.zbuf_bot_iw_I\[2\]\.z
*173 block\[10\]\.zbuf_bot_iw_I\[3\]\.z
*174 block\[10\]\.zbuf_bot_iw_I\[4\]\.z
*175 block\[10\]\.zbuf_bot_iw_I\[5\]\.z
*176 block\[10\]\.zbuf_bot_iw_I\[6\]\.z
*177 block\[10\]\.zbuf_bot_iw_I\[7\]\.z
*178 block\[10\]\.zbuf_bot_iw_I\[8\]\.z
*179 block\[10\]\.zbuf_bot_iw_I\[9\]\.z
*180 block\[1\]\.zbuf_bot_iw_I\[0\]\.z
*181 block\[10\]\.zbuf_bot_iw_I\[10\]\.z
*182 block\[10\]\.zbuf_bot_iw_I\[11\]\.z
*183 block\[10\]\.zbuf_bot_iw_I\[12\]\.z
*184 block\[10\]\.zbuf_bot_iw_I\[13\]\.z
*185 block\[10\]\.zbuf_bot_iw_I\[14\]\.z
*186 block\[10\]\.zbuf_bot_iw_I\[15\]\.z
*187 block\[10\]\.zbuf_bot_iw_I\[16\]\.z
*188 block\[10\]\.zbuf_bot_iw_I\[17\]\.z
*189 block\[11\]\.zbuf_bot_iw_I\[0\]\.z
*190 block\[11\]\.zbuf_bot_iw_I\[1\]\.z
*191 block\[1\]\.zbuf_bot_iw_I\[1\]\.z
*192 block\[0\]\.zbuf_bot_iw_I\[1\]\.z
*193 block\[11\]\.zbuf_bot_iw_I\[2\]\.z
*194 block\[11\]\.zbuf_bot_iw_I\[3\]\.z
*195 block\[11\]\.zbuf_bot_iw_I\[4\]\.z
*196 block\[11\]\.zbuf_bot_iw_I\[5\]\.z
*197 block\[11\]\.zbuf_bot_iw_I\[6\]\.z
*198 block\[11\]\.zbuf_bot_iw_I\[7\]\.z
*199 block\[11\]\.zbuf_bot_iw_I\[8\]\.z
*200 block\[11\]\.zbuf_bot_iw_I\[9\]\.z
*201 block\[11\]\.zbuf_bot_iw_I\[10\]\.z
*202 block\[11\]\.zbuf_bot_iw_I\[11\]\.z
*203 block\[1\]\.zbuf_bot_iw_I\[2\]\.z
*204 block\[11\]\.zbuf_bot_iw_I\[12\]\.z
*205 block\[11\]\.zbuf_bot_iw_I\[13\]\.z
*206 block\[11\]\.zbuf_bot_iw_I\[14\]\.z
*207 block\[11\]\.zbuf_bot_iw_I\[15\]\.z
*208 block\[11\]\.zbuf_bot_iw_I\[16\]\.z
*209 block\[11\]\.zbuf_bot_iw_I\[17\]\.z
*210 block\[12\]\.zbuf_bot_iw_I\[0\]\.z
*211 block\[12\]\.zbuf_bot_iw_I\[1\]\.z
*212 block\[12\]\.zbuf_bot_iw_I\[2\]\.z
*213 block\[12\]\.zbuf_bot_iw_I\[3\]\.z
*214 block\[1\]\.zbuf_bot_iw_I\[3\]\.z
*215 block\[12\]\.zbuf_bot_iw_I\[4\]\.z
*216 block\[12\]\.zbuf_bot_iw_I\[5\]\.z
*217 block\[12\]\.zbuf_bot_iw_I\[6\]\.z
*218 block\[12\]\.zbuf_bot_iw_I\[7\]\.z
*219 block\[12\]\.zbuf_bot_iw_I\[8\]\.z
*220 block\[12\]\.zbuf_bot_iw_I\[9\]\.z
*221 block\[12\]\.zbuf_bot_iw_I\[10\]\.z
*222 block\[12\]\.zbuf_bot_iw_I\[11\]\.z
*223 block\[12\]\.zbuf_bot_iw_I\[12\]\.z
*224 block\[12\]\.zbuf_bot_iw_I\[13\]\.z
*225 block\[1\]\.zbuf_bot_iw_I\[4\]\.z
*226 block\[12\]\.zbuf_bot_iw_I\[14\]\.z
*227 block\[12\]\.zbuf_bot_iw_I\[15\]\.z
*228 block\[12\]\.zbuf_bot_iw_I\[16\]\.z
*229 block\[12\]\.zbuf_bot_iw_I\[17\]\.z
*230 block\[13\]\.zbuf_bot_iw_I\[0\]\.z
*231 block\[13\]\.zbuf_bot_iw_I\[1\]\.z
*232 block\[13\]\.zbuf_bot_iw_I\[2\]\.z
*233 block\[13\]\.zbuf_bot_iw_I\[3\]\.z
*234 block\[13\]\.zbuf_bot_iw_I\[4\]\.z
*235 block\[13\]\.zbuf_bot_iw_I\[5\]\.z
*236 block\[1\]\.zbuf_bot_iw_I\[5\]\.z
*237 block\[13\]\.zbuf_bot_iw_I\[6\]\.z
*238 block\[13\]\.zbuf_bot_iw_I\[7\]\.z
*239 block\[13\]\.zbuf_bot_iw_I\[8\]\.z
*240 block\[13\]\.zbuf_bot_iw_I\[9\]\.z
*241 block\[13\]\.zbuf_bot_iw_I\[10\]\.z
*242 block\[13\]\.zbuf_bot_iw_I\[11\]\.z
*243 block\[13\]\.zbuf_bot_iw_I\[12\]\.z
*244 block\[13\]\.zbuf_bot_iw_I\[13\]\.z
*245 block\[13\]\.zbuf_bot_iw_I\[14\]\.z
*246 block\[13\]\.zbuf_bot_iw_I\[15\]\.z
*247 block\[1\]\.zbuf_bot_iw_I\[6\]\.z
*248 block\[13\]\.zbuf_bot_iw_I\[16\]\.z
*249 block\[13\]\.zbuf_bot_iw_I\[17\]\.z
*250 block\[14\]\.zbuf_bot_iw_I\[0\]\.z
*251 block\[14\]\.zbuf_bot_iw_I\[1\]\.z
*252 block\[14\]\.zbuf_bot_iw_I\[2\]\.z
*253 block\[14\]\.zbuf_bot_iw_I\[3\]\.z
*254 block\[14\]\.zbuf_bot_iw_I\[4\]\.z
*255 block\[14\]\.zbuf_bot_iw_I\[5\]\.z
*256 block\[14\]\.zbuf_bot_iw_I\[6\]\.z
*257 block\[14\]\.zbuf_bot_iw_I\[7\]\.z
*258 block\[1\]\.zbuf_bot_iw_I\[7\]\.z
*259 block\[14\]\.zbuf_bot_iw_I\[8\]\.z
*260 block\[14\]\.zbuf_bot_iw_I\[9\]\.z
*261 block\[14\]\.zbuf_bot_iw_I\[10\]\.z
*262 block\[14\]\.zbuf_bot_iw_I\[11\]\.z
*263 block\[14\]\.zbuf_bot_iw_I\[12\]\.z
*264 block\[14\]\.zbuf_bot_iw_I\[13\]\.z
*265 block\[14\]\.zbuf_bot_iw_I\[14\]\.z
*266 block\[14\]\.zbuf_bot_iw_I\[15\]\.z
*267 block\[14\]\.zbuf_bot_iw_I\[16\]\.z
*268 block\[14\]\.zbuf_bot_iw_I\[17\]\.z
*269 block\[1\]\.zbuf_bot_iw_I\[8\]\.z
*270 block\[15\]\.zbuf_bot_iw_I\[0\]\.z
*271 block\[15\]\.zbuf_bot_iw_I\[1\]\.z
*272 block\[15\]\.zbuf_bot_iw_I\[2\]\.z
*273 block\[15\]\.zbuf_bot_iw_I\[3\]\.z
*274 block\[15\]\.zbuf_bot_iw_I\[4\]\.z
*275 block\[15\]\.zbuf_bot_iw_I\[5\]\.z
*276 block\[15\]\.zbuf_bot_iw_I\[6\]\.z
*277 block\[15\]\.zbuf_bot_iw_I\[7\]\.z
*278 block\[15\]\.zbuf_bot_iw_I\[8\]\.z
*279 block\[15\]\.zbuf_bot_iw_I\[9\]\.z
*280 block\[1\]\.zbuf_bot_iw_I\[9\]\.z
*281 block\[15\]\.zbuf_bot_iw_I\[10\]\.z
*282 block\[15\]\.zbuf_bot_iw_I\[11\]\.z
*283 block\[15\]\.zbuf_bot_iw_I\[12\]\.z
*284 block\[15\]\.zbuf_bot_iw_I\[13\]\.z
*285 block\[15\]\.zbuf_bot_iw_I\[14\]\.z
*286 block\[15\]\.zbuf_bot_iw_I\[15\]\.z
*287 block\[15\]\.zbuf_bot_iw_I\[16\]\.z
*288 block\[15\]\.zbuf_bot_iw_I\[17\]\.z
*289 block\[1\]\.zbuf_bot_iw_I\[10\]\.z
*290 block\[1\]\.zbuf_bot_iw_I\[11\]\.z
*291 block\[0\]\.zbuf_bot_iw_I\[2\]\.z
*292 block\[1\]\.zbuf_bot_iw_I\[12\]\.z
*293 block\[1\]\.zbuf_bot_iw_I\[13\]\.z
*294 block\[1\]\.zbuf_bot_iw_I\[14\]\.z
*295 block\[1\]\.zbuf_bot_iw_I\[15\]\.z
*296 block\[1\]\.zbuf_bot_iw_I\[16\]\.z
*297 block\[1\]\.zbuf_bot_iw_I\[17\]\.z
*298 block\[2\]\.zbuf_bot_iw_I\[0\]\.z
*299 block\[2\]\.zbuf_bot_iw_I\[1\]\.z
*300 block\[2\]\.zbuf_bot_iw_I\[2\]\.z
*301 block\[2\]\.zbuf_bot_iw_I\[3\]\.z
*302 block\[0\]\.zbuf_bot_iw_I\[3\]\.z
*303 block\[2\]\.zbuf_bot_iw_I\[4\]\.z
*304 block\[2\]\.zbuf_bot_iw_I\[5\]\.z
*305 block\[2\]\.zbuf_bot_iw_I\[6\]\.z
*306 block\[2\]\.zbuf_bot_iw_I\[7\]\.z
*307 block\[2\]\.zbuf_bot_iw_I\[8\]\.z
*308 block\[2\]\.zbuf_bot_iw_I\[9\]\.z
*309 block\[2\]\.zbuf_bot_iw_I\[10\]\.z
*310 block\[2\]\.zbuf_bot_iw_I\[11\]\.z
*311 block\[2\]\.zbuf_bot_iw_I\[12\]\.z
*312 block\[2\]\.zbuf_bot_iw_I\[13\]\.z
*313 block\[0\]\.zbuf_bot_iw_I\[4\]\.z
*314 block\[2\]\.zbuf_bot_iw_I\[14\]\.z
*315 block\[2\]\.zbuf_bot_iw_I\[15\]\.z
*316 block\[2\]\.zbuf_bot_iw_I\[16\]\.z
*317 block\[2\]\.zbuf_bot_iw_I\[17\]\.z
*318 block\[3\]\.zbuf_bot_iw_I\[0\]\.z
*319 block\[3\]\.zbuf_bot_iw_I\[1\]\.z
*320 block\[3\]\.zbuf_bot_iw_I\[2\]\.z
*321 block\[3\]\.zbuf_bot_iw_I\[3\]\.z
*322 block\[3\]\.zbuf_bot_iw_I\[4\]\.z
*323 block\[3\]\.zbuf_bot_iw_I\[5\]\.z
*324 block\[0\]\.zbuf_bot_iw_I\[5\]\.z
*325 block\[3\]\.zbuf_bot_iw_I\[6\]\.z
*326 block\[3\]\.zbuf_bot_iw_I\[7\]\.z
*327 block\[3\]\.zbuf_bot_iw_I\[8\]\.z
*328 block\[3\]\.zbuf_bot_iw_I\[9\]\.z
*329 block\[3\]\.zbuf_bot_iw_I\[10\]\.z
*330 block\[3\]\.zbuf_bot_iw_I\[11\]\.z
*331 block\[3\]\.zbuf_bot_iw_I\[12\]\.z
*332 block\[3\]\.zbuf_bot_iw_I\[13\]\.z
*333 block\[3\]\.zbuf_bot_iw_I\[14\]\.z
*334 block\[3\]\.zbuf_bot_iw_I\[15\]\.z
*335 block\[0\]\.zbuf_bot_iw_I\[6\]\.z
*336 block\[3\]\.zbuf_bot_iw_I\[16\]\.z
*337 block\[3\]\.zbuf_bot_iw_I\[17\]\.z
*338 block\[4\]\.zbuf_bot_iw_I\[0\]\.z
*339 block\[4\]\.zbuf_bot_iw_I\[1\]\.z
*340 block\[4\]\.zbuf_bot_iw_I\[2\]\.z
*341 block\[4\]\.zbuf_bot_iw_I\[3\]\.z
*342 block\[4\]\.zbuf_bot_iw_I\[4\]\.z
*343 block\[4\]\.zbuf_bot_iw_I\[5\]\.z
*344 block\[4\]\.zbuf_bot_iw_I\[6\]\.z
*345 block\[4\]\.zbuf_bot_iw_I\[7\]\.z
*346 block\[0\]\.zbuf_bot_iw_I\[7\]\.z
*347 block\[4\]\.zbuf_bot_iw_I\[8\]\.z
*348 block\[4\]\.zbuf_bot_iw_I\[9\]\.z
*349 block\[4\]\.zbuf_bot_iw_I\[10\]\.z
*350 block\[4\]\.zbuf_bot_iw_I\[11\]\.z
*351 block\[4\]\.zbuf_bot_iw_I\[12\]\.z
*352 block\[4\]\.zbuf_bot_iw_I\[13\]\.z
*353 block\[4\]\.zbuf_bot_iw_I\[14\]\.z
*354 block\[4\]\.zbuf_bot_iw_I\[15\]\.z
*355 block\[4\]\.zbuf_bot_iw_I\[16\]\.z
*356 block\[4\]\.zbuf_bot_iw_I\[17\]\.z
*357 block\[0\]\.zbuf_bot_iw_I\[8\]\.z
*358 block\[5\]\.zbuf_bot_iw_I\[0\]\.z
*359 block\[5\]\.zbuf_bot_iw_I\[1\]\.z
*360 block\[5\]\.zbuf_bot_iw_I\[2\]\.z
*361 block\[5\]\.zbuf_bot_iw_I\[3\]\.z
*362 block\[5\]\.zbuf_bot_iw_I\[4\]\.z
*363 block\[5\]\.zbuf_bot_iw_I\[5\]\.z
*364 block\[5\]\.zbuf_bot_iw_I\[6\]\.z
*365 block\[5\]\.zbuf_bot_iw_I\[7\]\.z
*366 block\[5\]\.zbuf_bot_iw_I\[8\]\.z
*367 block\[5\]\.zbuf_bot_iw_I\[9\]\.z
*368 block\[0\]\.zbuf_bot_iw_I\[9\]\.z
*369 block\[0\]\.tie_I\.lo
*370 block\[10\]\.tie_I\.lo
*371 block\[11\]\.tie_I\.lo
*372 block\[12\]\.tie_I\.lo
*373 block\[13\]\.tie_I\.lo
*374 block\[14\]\.tie_I\.lo
*375 block\[15\]\.tie_I\.lo
*376 block\[1\]\.tie_I\.lo
*377 block\[2\]\.tie_I\.lo
*378 block\[3\]\.tie_I\.lo
*379 block\[4\]\.tie_I\.lo
*380 block\[5\]\.tie_I\.lo
*381 block\[6\]\.tie_I\.lo
*382 block\[7\]\.tie_I\.lo
*383 block\[8\]\.tie_I\.lo
*384 block\[9\]\.tie_I\.lo
*385 um_ow[0]
*386 um_ow[100]
*387 um_ow[101]
*388 um_ow[102]
*389 um_ow[103]
*390 um_ow[104]
*391 um_ow[105]
*392 um_ow[106]
*393 um_ow[107]
*394 um_ow[108]
*395 um_ow[109]
*396 um_ow[10]
*397 um_ow[110]
*398 um_ow[111]
*399 um_ow[112]
*400 um_ow[113]
*401 um_ow[114]
*402 um_ow[115]
*403 um_ow[116]
*404 um_ow[117]
*405 um_ow[118]
*406 um_ow[119]
*407 um_ow[11]
*408 um_ow[120]
*409 um_ow[121]
*410 um_ow[122]
*411 um_ow[123]
*412 um_ow[124]
*413 um_ow[125]
*414 um_ow[126]
*415 um_ow[127]
*416 um_ow[128]
*417 um_ow[129]
*418 um_ow[12]
*419 um_ow[130]
*420 um_ow[131]
*421 um_ow[132]
*422 um_ow[133]
*423 um_ow[134]
*424 um_ow[135]
*425 um_ow[136]
*426 um_ow[137]
*427 um_ow[138]
*428 um_ow[139]
*429 um_ow[13]
*430 um_ow[140]
*431 um_ow[141]
*432 um_ow[142]
*433 um_ow[143]
*434 um_ow[144]
*435 um_ow[145]
*436 um_ow[146]
*437 um_ow[147]
*438 um_ow[148]
*439 um_ow[149]
*440 um_ow[14]
*441 um_ow[150]
*442 um_ow[151]
*443 um_ow[152]
*444 um_ow[153]
*445 um_ow[154]
*446 um_ow[155]
*447 um_ow[156]
*448 um_ow[157]
*449 um_ow[158]
*450 um_ow[159]
*451 um_ow[15]
*452 um_ow[160]
*453 um_ow[161]
*454 um_ow[162]
*455 um_ow[163]
*456 um_ow[164]
*457 um_ow[165]
*458 um_ow[166]
*459 um_ow[167]
*460 um_ow[168]
*461 um_ow[169]
*462 um_ow[16]
*463 um_ow[170]
*464 um_ow[171]
*465 um_ow[172]
*466 um_ow[173]
*467 um_ow[174]
*468 um_ow[175]
*469 um_ow[176]
*470 um_ow[177]
*471 um_ow[178]
*472 um_ow[179]
*473 um_ow[17]
*474 um_ow[180]
*475 um_ow[181]
*476 um_ow[182]
*477 um_ow[183]
*478 um_ow[184]
*479 um_ow[185]
*480 um_ow[186]
*481 um_ow[187]
*482 um_ow[188]
*483 um_ow[189]
*484 um_ow[18]
*485 um_ow[190]
*486 um_ow[191]
*487 um_ow[192]
*488 um_ow[193]
*489 um_ow[194]
*490 um_ow[195]
*491 um_ow[196]
*492 um_ow[197]
*493 um_ow[198]
*494 um_ow[199]
*495 um_ow[19]
*496 um_ow[1]
*497 um_ow[200]
*498 um_ow[201]
*499 um_ow[202]
*500 um_ow[203]
*501 um_ow[204]
*502 um_ow[205]
*503 um_ow[206]
*504 um_ow[207]
*505 um_ow[208]
*506 um_ow[209]
*507 um_ow[20]
*508 um_ow[210]
*509 um_ow[211]
*510 um_ow[212]
*511 um_ow[213]
*512 um_ow[214]
*513 um_ow[215]
*514 um_ow[216]
*515 um_ow[217]
*516 um_ow[218]
*517 um_ow[219]
*518 um_ow[21]
*519 um_ow[220]
*520 um_ow[221]
*521 um_ow[222]
*522 um_ow[223]
*523 um_ow[224]
*524 um_ow[225]
*525 um_ow[226]
*526 um_ow[227]
*527 um_ow[228]
*528 um_ow[229]
*529 um_ow[22]
*530 um_ow[230]
*531 um_ow[231]
*532 um_ow[232]
*533 um_ow[233]
*534 um_ow[234]
*535 um_ow[235]
*536 um_ow[236]
*537 um_ow[237]
*538 um_ow[238]
*539 um_ow[239]
*540 um_ow[23]
*541 um_ow[240]
*542 um_ow[241]
*543 um_ow[242]
*544 um_ow[243]
*545 um_ow[244]
*546 um_ow[245]
*547 um_ow[246]
*548 um_ow[247]
*549 um_ow[248]
*550 um_ow[249]
*551 um_ow[24]
*552 um_ow[250]
*553 um_ow[251]
*554 um_ow[252]
*555 um_ow[253]
*556 um_ow[254]
*557 um_ow[255]
*558 um_ow[256]
*559 um_ow[257]
*560 um_ow[258]
*561 um_ow[259]
*562 um_ow[25]
*563 um_ow[260]
*564 um_ow[261]
*565 um_ow[262]
*566 um_ow[263]
*567 um_ow[264]
*568 um_ow[265]
*569 um_ow[266]
*570 um_ow[267]
*571 um_ow[268]
*572 um_ow[269]
*573 um_ow[26]
*574 um_ow[270]
*575 um_ow[271]
*576 um_ow[272]
*577 um_ow[273]
*578 um_ow[274]
*579 um_ow[275]
*580 um_ow[276]
*581 um_ow[277]
*582 um_ow[278]
*583 um_ow[279]
*584 um_ow[27]
*585 um_ow[280]
*586 um_ow[281]
*587 um_ow[282]
*588 um_ow[283]
*589 um_ow[284]
*590 um_ow[285]
*591 um_ow[286]
*592 um_ow[287]
*593 um_ow[288]
*594 um_ow[289]
*595 um_ow[28]
*596 um_ow[290]
*597 um_ow[291]
*598 um_ow[292]
*599 um_ow[293]
*600 um_ow[294]
*601 um_ow[295]
*602 um_ow[296]
*603 um_ow[297]
*604 um_ow[298]
*605 um_ow[299]
*606 um_ow[29]
*607 um_ow[2]
*608 um_ow[300]
*609 um_ow[301]
*610 um_ow[302]
*611 um_ow[303]
*612 um_ow[304]
*613 um_ow[305]
*614 um_ow[306]
*615 um_ow[307]
*616 um_ow[308]
*617 um_ow[309]
*618 um_ow[30]
*619 um_ow[310]
*620 um_ow[311]
*621 um_ow[312]
*622 um_ow[313]
*623 um_ow[314]
*624 um_ow[315]
*625 um_ow[316]
*626 um_ow[317]
*627 um_ow[318]
*628 um_ow[319]
*629 um_ow[31]
*630 um_ow[320]
*631 um_ow[321]
*632 um_ow[322]
*633 um_ow[323]
*634 um_ow[324]
*635 um_ow[325]
*636 um_ow[326]
*637 um_ow[327]
*638 um_ow[328]
*639 um_ow[329]
*640 um_ow[32]
*641 um_ow[330]
*642 um_ow[331]
*643 um_ow[332]
*644 um_ow[333]
*645 um_ow[334]
*646 um_ow[335]
*647 um_ow[336]
*648 um_ow[337]
*649 um_ow[338]
*650 um_ow[339]
*651 um_ow[33]
*652 um_ow[340]
*653 um_ow[341]
*654 um_ow[342]
*655 um_ow[343]
*656 um_ow[344]
*657 um_ow[345]
*658 um_ow[346]
*659 um_ow[347]
*660 um_ow[348]
*661 um_ow[349]
*662 um_ow[34]
*663 um_ow[350]
*664 um_ow[351]
*665 um_ow[352]
*666 um_ow[353]
*667 um_ow[354]
*668 um_ow[355]
*669 um_ow[356]
*670 um_ow[357]
*671 um_ow[358]
*672 um_ow[359]
*673 um_ow[35]
*674 um_ow[360]
*675 um_ow[361]
*676 um_ow[362]
*677 um_ow[363]
*678 um_ow[364]
*679 um_ow[365]
*680 um_ow[366]
*681 um_ow[367]
*682 um_ow[368]
*683 um_ow[369]
*684 um_ow[36]
*685 um_ow[370]
*686 um_ow[371]
*687 um_ow[372]
*688 um_ow[373]
*689 um_ow[374]
*690 um_ow[375]
*691 um_ow[376]
*692 um_ow[377]
*693 um_ow[378]
*694 um_ow[379]
*695 um_ow[37]
*696 um_ow[380]
*697 um_ow[381]
*698 um_ow[382]
*699 um_ow[383]
*700 um_ow[38]
*701 um_ow[39]
*702 um_ow[3]
*703 um_ow[40]
*704 um_ow[41]
*705 um_ow[42]
*706 um_ow[43]
*707 um_ow[44]
*708 um_ow[45]
*709 um_ow[46]
*710 um_ow[47]
*711 um_ow[48]
*712 um_ow[49]
*713 um_ow[4]
*714 um_ow[50]
*715 um_ow[51]
*716 um_ow[52]
*717 um_ow[53]
*718 um_ow[54]
*719 um_ow[55]
*720 um_ow[56]
*721 um_ow[57]
*722 um_ow[58]
*723 um_ow[59]
*724 um_ow[5]
*725 um_ow[60]
*726 um_ow[61]
*727 um_ow[62]
*728 um_ow[63]
*729 um_ow[64]
*730 um_ow[65]
*731 um_ow[66]
*732 um_ow[67]
*733 um_ow[68]
*734 um_ow[69]
*735 um_ow[6]
*736 um_ow[70]
*737 um_ow[71]
*738 um_ow[72]
*739 um_ow[73]
*740 um_ow[74]
*741 um_ow[75]
*742 um_ow[76]
*743 um_ow[77]
*744 um_ow[78]
*745 um_ow[79]
*746 um_ow[7]
*747 um_ow[80]
*748 um_ow[81]
*749 um_ow[82]
*750 um_ow[83]
*751 um_ow[84]
*752 um_ow[85]
*753 um_ow[86]
*754 um_ow[87]
*755 um_ow[88]
*756 um_ow[89]
*757 um_ow[8]
*758 um_ow[90]
*759 um_ow[91]
*760 um_ow[92]
*761 um_ow[93]
*762 um_ow[94]
*763 um_ow[95]
*764 um_ow[96]
*765 um_ow[97]
*766 um_ow[98]
*767 um_ow[99]
*768 um_ow[9]
*769 block\[0\]\.zbuf_pg_vdd_I\.z
*770 block\[10\]\.zbuf_pg_vdd_I\.z
*771 block\[11\]\.zbuf_pg_vdd_I\.z
*772 block\[12\]\.zbuf_pg_vdd_I\.z
*773 block\[13\]\.zbuf_pg_vdd_I\.z
*774 block\[14\]\.zbuf_pg_vdd_I\.z
*775 block\[15\]\.zbuf_pg_vdd_I\.z
*776 block\[1\]\.zbuf_pg_vdd_I\.z
*777 block\[2\]\.zbuf_pg_vdd_I\.z
*778 block\[3\]\.zbuf_pg_vdd_I\.z
*779 block\[4\]\.zbuf_pg_vdd_I\.z
*780 block\[5\]\.zbuf_pg_vdd_I\.z
*781 block\[6\]\.zbuf_pg_vdd_I\.z
*782 block\[7\]\.zbuf_pg_vdd_I\.z
*783 block\[8\]\.zbuf_pg_vdd_I\.z
*784 block\[9\]\.zbuf_pg_vdd_I\.z
*785 _00_
*786 _01_
*787 _02_
*788 _03_
*789 _04_
*790 _05_
*791 _06_
*792 _07_
*793 _08_
*794 block\[0\]\.genblk1\.grp_sel_buf_I\.a
*795 block\[0\]\.genblk1\.grp_sel_buf_I\.z
*796 block\[0\]\.genblk1\.mux4_I\[0\]\.x
*797 block\[0\]\.genblk1\.mux4_I\[10\]\.x
*798 block\[0\]\.genblk1\.mux4_I\[11\]\.x
*799 block\[0\]\.genblk1\.mux4_I\[12\]\.x
*800 block\[0\]\.genblk1\.mux4_I\[13\]\.x
*801 block\[0\]\.genblk1\.mux4_I\[14\]\.x
*802 block\[0\]\.genblk1\.mux4_I\[15\]\.x
*803 block\[0\]\.genblk1\.mux4_I\[16\]\.x
*804 block\[0\]\.genblk1\.mux4_I\[17\]\.x
*805 block\[0\]\.genblk1\.mux4_I\[18\]\.x
*806 block\[0\]\.genblk1\.mux4_I\[19\]\.x
*807 block\[0\]\.genblk1\.mux4_I\[1\]\.x
*808 block\[0\]\.genblk1\.mux4_I\[20\]\.x
*809 block\[0\]\.genblk1\.mux4_I\[21\]\.x
*810 block\[0\]\.genblk1\.mux4_I\[22\]\.x
*811 block\[0\]\.genblk1\.mux4_I\[23\]\.x
*812 block\[0\]\.genblk1\.mux4_I\[2\]\.x
*813 block\[0\]\.genblk1\.mux4_I\[3\]\.x
*814 block\[0\]\.genblk1\.mux4_I\[4\]\.x
*815 block\[0\]\.genblk1\.mux4_I\[5\]\.x
*816 block\[0\]\.genblk1\.mux4_I\[6\]\.x
*817 block\[0\]\.genblk1\.mux4_I\[7\]\.x
*818 block\[0\]\.genblk1\.mux4_I\[8\]\.x
*819 block\[0\]\.genblk1\.mux4_I\[9\]\.x
*820 block\[0\]\.genblk1\.mux4_sel_buf_I\[0\]\.a
*821 block\[0\]\.genblk1\.mux4_sel_buf_I\[0\]\.z
*822 block\[0\]\.genblk1\.mux4_sel_buf_I\[1\]\.a
*823 block\[0\]\.genblk1\.mux4_sel_buf_I\[1\]\.z
*824 block\[0\]\.genblk1\.tbuf_blk_ena_I\.tx
*825 block\[0\]\.genblk1\.tbuf_spine_ow_I\[0\]\.z
*826 block\[0\]\.genblk1\.tbuf_spine_ow_I\[10\]\.z
*827 block\[0\]\.genblk1\.tbuf_spine_ow_I\[11\]\.z
*828 block\[0\]\.genblk1\.tbuf_spine_ow_I\[12\]\.z
*829 block\[0\]\.genblk1\.tbuf_spine_ow_I\[13\]\.z
*830 block\[0\]\.genblk1\.tbuf_spine_ow_I\[14\]\.z
*831 block\[0\]\.genblk1\.tbuf_spine_ow_I\[15\]\.z
*832 block\[0\]\.genblk1\.tbuf_spine_ow_I\[16\]\.z
*833 block\[0\]\.genblk1\.tbuf_spine_ow_I\[17\]\.z
*834 block\[0\]\.genblk1\.tbuf_spine_ow_I\[18\]\.z
*835 block\[0\]\.genblk1\.tbuf_spine_ow_I\[19\]\.z
*836 block\[0\]\.genblk1\.tbuf_spine_ow_I\[1\]\.z
*837 block\[0\]\.genblk1\.tbuf_spine_ow_I\[20\]\.z
*838 block\[0\]\.genblk1\.tbuf_spine_ow_I\[21\]\.z
*839 block\[0\]\.genblk1\.tbuf_spine_ow_I\[22\]\.z
*840 block\[0\]\.genblk1\.tbuf_spine_ow_I\[23\]\.z
*841 block\[0\]\.genblk1\.tbuf_spine_ow_I\[2\]\.z
*842 block\[0\]\.genblk1\.tbuf_spine_ow_I\[3\]\.z
*843 block\[0\]\.genblk1\.tbuf_spine_ow_I\[4\]\.z
*844 block\[0\]\.genblk1\.tbuf_spine_ow_I\[5\]\.z
*845 block\[0\]\.genblk1\.tbuf_spine_ow_I\[6\]\.z
*846 block\[0\]\.genblk1\.tbuf_spine_ow_I\[7\]\.z
*847 block\[0\]\.genblk1\.tbuf_spine_ow_I\[8\]\.z
*848 block\[0\]\.genblk1\.tbuf_spine_ow_I\[9\]\.z
*849 block\[0\]\.l_ena_0_I\.a
*850 block\[0\]\.l_ena_0_I\.z
*851 block\[0\]\.tie_I\.hi
*852 block\[0\]\.zbuf_bot_iw_I\[0\]\.a
*853 block\[0\]\.zbuf_bot_iw_I\[10\]\.a
*854 block\[0\]\.zbuf_bot_iw_I\[11\]\.a
*855 block\[0\]\.zbuf_bot_iw_I\[12\]\.a
*856 block\[0\]\.zbuf_bot_iw_I\[13\]\.a
*857 block\[0\]\.zbuf_bot_iw_I\[14\]\.a
*858 block\[0\]\.zbuf_bot_iw_I\[15\]\.a
*859 block\[0\]\.zbuf_bot_iw_I\[16\]\.a
*860 block\[0\]\.zbuf_bot_iw_I\[17\]\.a
*861 block\[0\]\.zbuf_bot_iw_I\[1\]\.a
*862 block\[0\]\.zbuf_bot_iw_I\[2\]\.a
*863 block\[0\]\.zbuf_bot_iw_I\[3\]\.a
*864 block\[0\]\.zbuf_bot_iw_I\[4\]\.a
*865 block\[0\]\.zbuf_bot_iw_I\[5\]\.a
*866 block\[0\]\.zbuf_bot_iw_I\[6\]\.a
*867 block\[0\]\.zbuf_bot_iw_I\[7\]\.a
*868 block\[0\]\.zbuf_bot_iw_I\[8\]\.a
*869 block\[0\]\.zbuf_bot_iw_I\[9\]\.a
*870 block\[10\]\.l_ena_0_I\.a
*871 block\[10\]\.l_ena_0_I\.z
*872 block\[10\]\.tie_I\.hi
*873 block\[11\]\.l_ena_0_I\.a
*874 block\[11\]\.l_ena_0_I\.z
*875 block\[11\]\.tie_I\.hi
*876 block\[12\]\.genblk1\.grp_sel_buf_I\.a
*877 block\[12\]\.genblk1\.grp_sel_buf_I\.z
*878 block\[12\]\.genblk1\.mux4_I\[0\]\.x
*879 block\[12\]\.genblk1\.mux4_I\[10\]\.x
*880 block\[12\]\.genblk1\.mux4_I\[11\]\.x
*881 block\[12\]\.genblk1\.mux4_I\[12\]\.x
*882 block\[12\]\.genblk1\.mux4_I\[13\]\.x
*883 block\[12\]\.genblk1\.mux4_I\[14\]\.x
*884 block\[12\]\.genblk1\.mux4_I\[15\]\.x
*885 block\[12\]\.genblk1\.mux4_I\[16\]\.x
*886 block\[12\]\.genblk1\.mux4_I\[17\]\.x
*887 block\[12\]\.genblk1\.mux4_I\[18\]\.x
*888 block\[12\]\.genblk1\.mux4_I\[19\]\.x
*889 block\[12\]\.genblk1\.mux4_I\[1\]\.x
*890 block\[12\]\.genblk1\.mux4_I\[20\]\.x
*891 block\[12\]\.genblk1\.mux4_I\[21\]\.x
*892 block\[12\]\.genblk1\.mux4_I\[22\]\.x
*893 block\[12\]\.genblk1\.mux4_I\[23\]\.x
*894 block\[12\]\.genblk1\.mux4_I\[2\]\.x
*895 block\[12\]\.genblk1\.mux4_I\[3\]\.x
*896 block\[12\]\.genblk1\.mux4_I\[4\]\.x
*897 block\[12\]\.genblk1\.mux4_I\[5\]\.x
*898 block\[12\]\.genblk1\.mux4_I\[6\]\.x
*899 block\[12\]\.genblk1\.mux4_I\[7\]\.x
*900 block\[12\]\.genblk1\.mux4_I\[8\]\.x
*901 block\[12\]\.genblk1\.mux4_I\[9\]\.x
*902 block\[12\]\.genblk1\.mux4_sel_buf_I\[0\]\.z
*903 block\[12\]\.genblk1\.mux4_sel_buf_I\[1\]\.z
*904 block\[12\]\.genblk1\.tbuf_blk_ena_I\.tx
*905 block\[12\]\.l_ena_0_I\.a
*906 block\[12\]\.l_ena_0_I\.z
*907 block\[12\]\.tie_I\.hi
*908 block\[13\]\.l_ena_0_I\.a
*909 block\[13\]\.l_ena_0_I\.z
*910 block\[13\]\.tie_I\.hi
*911 block\[14\]\.l_ena_0_I\.a
*912 block\[14\]\.l_ena_0_I\.z
*913 block\[14\]\.tie_I\.hi
*914 block\[15\]\.l_ena_0_I\.a
*915 block\[15\]\.l_ena_0_I\.z
*916 block\[15\]\.tie_I\.hi
*917 block\[1\]\.l_ena_0_I\.a
*918 block\[1\]\.l_ena_0_I\.z
*919 block\[1\]\.tie_I\.hi
*920 block\[2\]\.l_ena_0_I\.a
*921 block\[2\]\.l_ena_0_I\.z
*922 block\[2\]\.tie_I\.hi
*923 block\[3\]\.l_ena_0_I\.a
*924 block\[3\]\.l_ena_0_I\.z
*925 block\[3\]\.tie_I\.hi
*926 block\[4\]\.genblk1\.grp_sel_buf_I\.a
*927 block\[4\]\.genblk1\.grp_sel_buf_I\.z
*928 block\[4\]\.genblk1\.mux4_I\[0\]\.x
*929 block\[4\]\.genblk1\.mux4_I\[10\]\.x
*930 block\[4\]\.genblk1\.mux4_I\[11\]\.x
*931 block\[4\]\.genblk1\.mux4_I\[12\]\.x
*932 block\[4\]\.genblk1\.mux4_I\[13\]\.x
*933 block\[4\]\.genblk1\.mux4_I\[14\]\.x
*934 block\[4\]\.genblk1\.mux4_I\[15\]\.x
*935 block\[4\]\.genblk1\.mux4_I\[16\]\.x
*936 block\[4\]\.genblk1\.mux4_I\[17\]\.x
*937 block\[4\]\.genblk1\.mux4_I\[18\]\.x
*938 block\[4\]\.genblk1\.mux4_I\[19\]\.x
*939 block\[4\]\.genblk1\.mux4_I\[1\]\.x
*940 block\[4\]\.genblk1\.mux4_I\[20\]\.x
*941 block\[4\]\.genblk1\.mux4_I\[21\]\.x
*942 block\[4\]\.genblk1\.mux4_I\[22\]\.x
*943 block\[4\]\.genblk1\.mux4_I\[23\]\.x
*944 block\[4\]\.genblk1\.mux4_I\[2\]\.x
*945 block\[4\]\.genblk1\.mux4_I\[3\]\.x
*946 block\[4\]\.genblk1\.mux4_I\[4\]\.x
*947 block\[4\]\.genblk1\.mux4_I\[5\]\.x
*948 block\[4\]\.genblk1\.mux4_I\[6\]\.x
*949 block\[4\]\.genblk1\.mux4_I\[7\]\.x
*950 block\[4\]\.genblk1\.mux4_I\[8\]\.x
*951 block\[4\]\.genblk1\.mux4_I\[9\]\.x
*952 block\[4\]\.genblk1\.mux4_sel_buf_I\[0\]\.z
*953 block\[4\]\.genblk1\.mux4_sel_buf_I\[1\]\.z
*954 block\[4\]\.genblk1\.tbuf_blk_ena_I\.tx
*955 block\[4\]\.l_ena_0_I\.a
*956 block\[4\]\.l_ena_0_I\.z
*957 block\[4\]\.tie_I\.hi
*958 block\[5\]\.l_ena_0_I\.a
*959 block\[5\]\.l_ena_0_I\.z
*960 block\[5\]\.tie_I\.hi
*961 block\[6\]\.l_ena_0_I\.a
*962 block\[6\]\.l_ena_0_I\.z
*963 block\[6\]\.tie_I\.hi
*964 block\[7\]\.l_ena_0_I\.a
*965 block\[7\]\.l_ena_0_I\.z
*966 block\[7\]\.tie_I\.hi
*967 block\[8\]\.genblk1\.grp_sel_buf_I\.a
*968 block\[8\]\.genblk1\.grp_sel_buf_I\.z
*969 block\[8\]\.genblk1\.mux4_I\[0\]\.x
*970 block\[8\]\.genblk1\.mux4_I\[10\]\.x
*971 block\[8\]\.genblk1\.mux4_I\[11\]\.x
*972 block\[8\]\.genblk1\.mux4_I\[12\]\.x
*973 block\[8\]\.genblk1\.mux4_I\[13\]\.x
*974 block\[8\]\.genblk1\.mux4_I\[14\]\.x
*975 block\[8\]\.genblk1\.mux4_I\[15\]\.x
*976 block\[8\]\.genblk1\.mux4_I\[16\]\.x
*977 block\[8\]\.genblk1\.mux4_I\[17\]\.x
*978 block\[8\]\.genblk1\.mux4_I\[18\]\.x
*979 block\[8\]\.genblk1\.mux4_I\[19\]\.x
*980 block\[8\]\.genblk1\.mux4_I\[1\]\.x
*981 block\[8\]\.genblk1\.mux4_I\[20\]\.x
*982 block\[8\]\.genblk1\.mux4_I\[21\]\.x
*983 block\[8\]\.genblk1\.mux4_I\[22\]\.x
*984 block\[8\]\.genblk1\.mux4_I\[23\]\.x
*985 block\[8\]\.genblk1\.mux4_I\[2\]\.x
*986 block\[8\]\.genblk1\.mux4_I\[3\]\.x
*987 block\[8\]\.genblk1\.mux4_I\[4\]\.x
*988 block\[8\]\.genblk1\.mux4_I\[5\]\.x
*989 block\[8\]\.genblk1\.mux4_I\[6\]\.x
*990 block\[8\]\.genblk1\.mux4_I\[7\]\.x
*991 block\[8\]\.genblk1\.mux4_I\[8\]\.x
*992 block\[8\]\.genblk1\.mux4_I\[9\]\.x
*993 block\[8\]\.genblk1\.mux4_sel_buf_I\[0\]\.z
*994 block\[8\]\.genblk1\.mux4_sel_buf_I\[1\]\.z
*995 block\[8\]\.genblk1\.tbuf_blk_ena_I\.tx
*996 block\[8\]\.l_ena_0_I\.a
*997 block\[8\]\.l_ena_0_I\.z
*998 block\[8\]\.tie_I\.hi
*999 block\[9\]\.l_ena_0_I\.a
*1000 block\[9\]\.l_ena_0_I\.z
*1001 block\[9\]\.tie_I\.hi
*1002 branch_addr_match_buf_I\[0\]\.z
*1003 branch_addr_match_buf_I\[1\]\.z
*1004 branch_addr_match_buf_I\[2\]\.z
*1005 branch_addr_match_buf_I\[3\]\.z
*1006 branch_ena_buf_I\.z
*1007 branch_sel_buf_I\.a
*1008 branch_sel_buf_I\.z
*1009 branch_sel_n_buf_I\.z
*1010 buf_bus_ena_I\.z
*1011 buf_spine_ow_I\[0\]\.z
*1012 buf_spine_ow_I\[10\]\.z
*1013 buf_spine_ow_I\[11\]\.z
*1014 buf_spine_ow_I\[12\]\.z
*1015 buf_spine_ow_I\[13\]\.z
*1016 buf_spine_ow_I\[14\]\.z
*1017 buf_spine_ow_I\[15\]\.z
*1018 buf_spine_ow_I\[16\]\.z
*1019 buf_spine_ow_I\[17\]\.z
*1020 buf_spine_ow_I\[18\]\.z
*1021 buf_spine_ow_I\[19\]\.z
*1022 buf_spine_ow_I\[1\]\.z
*1023 buf_spine_ow_I\[20\]\.z
*1024 buf_spine_ow_I\[21\]\.z
*1025 buf_spine_ow_I\[22\]\.z
*1026 buf_spine_ow_I\[23\]\.z
*1027 buf_spine_ow_I\[2\]\.z
*1028 buf_spine_ow_I\[3\]\.z
*1029 buf_spine_ow_I\[4\]\.z
*1030 buf_spine_ow_I\[5\]\.z
*1031 buf_spine_ow_I\[6\]\.z
*1032 buf_spine_ow_I\[7\]\.z
*1033 buf_spine_ow_I\[8\]\.z