*SPEF "ieee 1481-1999"
*DESIGN "user_project_wrapper"
*DATE "11:11:11 Fri 11 11, 1111"
*VENDOR "OpenRCX"
*PROGRAM "Parallel Extraction"
*VERSION "1.0"
*DESIGN_FLOW "NAME_SCOPE LOCAL" "PIN_CAP NONE"
*DIVIDER /
*DELIMITER :
*BUS_DELIMITER []
*T_UNIT 1 NS
*C_UNIT 1 PF
*R_UNIT 1 OHM
*L_UNIT 1 HENRY

*NAME_MAP
*1 analog_io[0]
*2 analog_io[10]
*3 analog_io[11]
*4 analog_io[12]
*5 analog_io[13]
*6 analog_io[14]
*7 analog_io[15]
*8 analog_io[16]
*9 analog_io[17]
*10 analog_io[18]
*11 analog_io[19]
*12 analog_io[1]
*13 analog_io[20]
*14 analog_io[21]
*15 analog_io[22]
*16 analog_io[23]
*17 analog_io[24]
*18 analog_io[25]
*19 analog_io[26]
*20 analog_io[27]
*21 analog_io[28]
*22 analog_io[2]
*23 analog_io[3]
*24 analog_io[4]
*25 analog_io[5]
*26 analog_io[6]
*27 analog_io[7]
*28 analog_io[8]
*29 analog_io[9]
*30 io_in[0]
*31 io_in[10]
*32 io_in[11]
*33 io_in[12]
*34 io_in[13]
*35 io_in[14]
*36 io_in[15]
*37 io_in[16]
*38 io_in[17]
*39 io_in[18]
*40 io_in[19]
*41 io_in[1]
*42 io_in[20]
*43 io_in[21]
*44 io_in[22]
*45 io_in[23]
*46 io_in[24]
*47 io_in[25]
*48 io_in[26]
*49 io_in[27]
*50 io_in[28]
*51 io_in[29]
*52 io_in[2]
*53 io_in[30]
*54 io_in[31]
*55 io_in[32]
*56 io_in[33]
*57 io_in[34]
*58 io_in[35]
*59 io_in[36]
*60 io_in[37]
*61 io_in[3]
*62 io_in[4]
*63 io_in[5]
*64 io_in[6]
*65 io_in[7]
*66 io_in[8]
*67 io_in[9]
*68 top_I\.io_oeb\[0\]
*69 wbs_ack_o
*70 io_oeb[24]
*71 io_oeb[25]
*72 io_oeb[26]
*73 io_oeb[27]
*74 io_oeb[28]
*75 io_oeb[29]
*76 io_oeb[30]
*77 io_oeb[31]
*78 io_out[16]
*79 io_out[17]
*80 io_out[18]
*81 io_out[19]
*82 io_out[20]
*83 io_out[21]
*84 io_out[22]
*85 io_out[23]
*86 io_out[24]
*87 io_out[25]
*88 io_out[26]
*89 io_out[27]
*90 io_out[28]
*91 io_out[29]
*92 io_out[30]
*93 io_out[31]
*94 user_clock2
*95 la_data_in[0]
*96 la_data_in[100]
*97 la_data_in[101]
*98 la_data_in[102]
*99 la_data_in[103]
*100 la_data_in[104]
*101 la_data_in[105]
*102 la_data_in[106]
*103 la_data_in[107]
*104 la_data_in[108]
*105 la_data_in[109]
*106 la_data_in[10]
*107 la_data_in[110]
*108 la_data_in[111]
*109 la_data_in[112]
*110 la_data_in[113]
*111 la_data_in[114]
*112 la_data_in[115]
*113 la_data_in[116]
*114 la_data_in[117]
*115 la_data_in[118]
*116 la_data_in[119]
*117 la_data_in[11]
*118 la_data_in[120]
*119 la_data_in[121]
*120 la_data_in[122]
*121 la_data_in[123]
*122 la_data_in[124]
*123 la_data_in[125]
*124 la_data_in[126]
*125 la_data_in[127]
*126 la_data_in[12]
*127 la_data_in[13]
*128 la_data_in[14]
*129 la_data_in[15]
*130 la_data_in[16]
*131 la_data_in[17]
*132 la_data_in[18]
*133 la_data_in[19]
*134 la_data_in[1]
*135 la_data_in[20]
*136 la_data_in[21]
*137 la_data_in[22]
*138 la_data_in[23]
*139 la_data_in[24]
*140 la_data_in[25]
*141 la_data_in[26]
*142 la_data_in[27]
*143 la_data_in[28]
*144 la_data_in[29]
*145 la_data_in[2]
*146 la_data_in[30]
*147 la_data_in[31]
*148 la_data_in[32]
*149 la_data_in[33]
*150 la_data_in[34]
*151 la_data_in[35]
*152 la_data_in[36]
*153 la_data_in[37]
*154 la_data_in[38]
*155 la_data_in[39]
*156 la_data_in[3]
*157 la_data_in[40]
*158 la_data_in[41]
*159 la_data_in[42]
*160 la_data_in[43]
*161 la_data_in[44]
*162 la_data_in[45]
*163 la_data_in[46]
*164 la_data_in[47]
*165 la_data_in[48]
*166 la_data_in[49]
*167 la_data_in[4]
*168 la_data_in[50]
*169 la_data_in[51]
*170 la_data_in[52]
*171 la_data_in[53]
*172 la_data_in[54]
*173 la_data_in[55]
*174 la_data_in[56]
*175 la_data_in[57]
*176 la_data_in[58]
*177 la_data_in[59]
*178 la_data_in[5]
*179 la_data_in[60]
*180 la_data_in[61]
*181 la_data_in[62]
*182 la_data_in[63]
*183 la_data_in[64]
*184 la_data_in[65]
*185 la_data_in[66]
*186 la_data_in[67]
*187 la_data_in[68]
*188 la_data_in[69]
*189 la_data_in[6]
*190 la_data_in[70]
*191 la_data_in[71]
*192 la_data_in[72]
*193 la_data_in[73]
*194 la_data_in[74]
*195 la_data_in[75]
*196 la_data_in[76]
*197 la_data_in[77]
*198 la_data_in[78]
*199 la_data_in[79]
*200 la_data_in[7]
*201 la_data_in[80]
*202 la_data_in[81]
*203 la_data_in[82]
*204 la_data_in[83]
*205 la_data_in[84]
*206 la_data_in[85]
*207 la_data_in[86]
*208 la_data_in[87]
*209 la_data_in[88]
*210 la_data_in[89]
*211 la_data_in[8]
*212 la_data_in[90]
*213 la_data_in[91]
*214 la_data_in[92]
*215 la_data_in[93]
*216 la_data_in[94]
*217 la_data_in[95]
*218 la_data_in[96]
*219 la_data_in[97]
*220 la_data_in[98]
*221 la_data_in[99]
*222 la_data_in[9]
*223 la_oenb[0]
*224 la_oenb[100]
*225 la_oenb[101]
*226 la_oenb[102]
*227 la_oenb[103]
*228 la_oenb[104]
*229 la_oenb[105]
*230 la_oenb[106]
*231 la_oenb[107]
*232 la_oenb[108]
*233 la_oenb[109]
*234 la_oenb[10]
*235 la_oenb[110]
*236 la_oenb[111]
*237 la_oenb[112]
*238 la_oenb[113]
*239 la_oenb[114]
*240 la_oenb[115]
*241 la_oenb[116]
*242 la_oenb[117]
*243 la_oenb[118]
*244 la_oenb[119]
*245 la_oenb[11]
*246 la_oenb[120]
*247 la_oenb[121]
*248 la_oenb[122]
*249 la_oenb[123]
*250 la_oenb[124]
*251 la_oenb[125]
*252 la_oenb[126]
*253 la_oenb[127]
*254 la_oenb[12]
*255 la_oenb[13]
*256 la_oenb[14]
*257 la_oenb[15]
*258 la_oenb[16]
*259 la_oenb[17]
*260 la_oenb[18]
*261 la_oenb[19]
*262 la_oenb[1]
*263 la_oenb[20]
*264 la_oenb[21]
*265 la_oenb[22]
*266 la_oenb[23]
*267 la_oenb[24]
*268 la_oenb[25]
*269 la_oenb[26]
*270 la_oenb[27]
*271 la_oenb[28]
*272 la_oenb[29]
*273 la_oenb[2]
*274 la_oenb[30]
*275 la_oenb[31]
*276 la_oenb[32]
*277 la_oenb[33]
*278 la_oenb[34]
*279 la_oenb[35]
*280 la_oenb[36]
*281 la_oenb[37]
*282 la_oenb[38]
*283 la_oenb[39]
*284 la_oenb[3]
*285 la_oenb[40]
*286 la_oenb[41]
*287 la_oenb[42]
*288 la_oenb[43]
*289 la_oenb[44]
*290 la_oenb[45]
*291 la_oenb[46]
*292 la_oenb[47]
*293 la_oenb[48]
*294 la_oenb[49]
*295 la_oenb[4]
*296 la_oenb[50]
*297 la_oenb[51]
*298 la_oenb[52]
*299 la_oenb[53]
*300 la_oenb[54]
*301 la_oenb[55]
*302 la_oenb[56]
*303 la_oenb[57]
*304 la_oenb[58]
*305 la_oenb[59]
*306 la_oenb[5]
*307 la_oenb[60]
*308 la_oenb[61]
*309 la_oenb[62]
*310 la_oenb[63]
*311 la_oenb[64]
*312 la_oenb[65]
*313 la_oenb[66]
*314 la_oenb[67]
*315 la_oenb[68]
*316 la_oenb[69]
*317 la_oenb[6]
*318 la_oenb[70]
*319 la_oenb[71]
*320 la_oenb[72]
*321 la_oenb[73]
*322 la_oenb[74]
*323 la_oenb[75]
*324 la_oenb[76]
*325 la_oenb[77]
*326 la_oenb[78]
*327 la_oenb[79]
*328 la_oenb[7]
*329 la_oenb[80]
*330 la_oenb[81]
*331 la_oenb[82]
*332 la_oenb[83]
*333 la_oenb[84]
*334 la_oenb[85]
*335 la_oenb[86]
*336 la_oenb[87]
*337 la_oenb[88]
*338 la_oenb[89]
*339 la_oenb[8]
*340 la_oenb[90]
*341 la_oenb[91]
*342 la_oenb[92]
*343 la_oenb[93]
*344 la_oenb[94]
*345 la_oenb[95]
*346 la_oenb[96]
*347 la_oenb[97]
*348 la_oenb[98]
*349 la_oenb[99]
*350 la_oenb[9]
*359 wb_clk_i
*360 wb_rst_i
*361 wbs_adr_i[0]
*362 wbs_adr_i[10]
*363 wbs_adr_i[11]
*364 wbs_adr_i[12]
*365 wbs_adr_i[13]
*366 wbs_adr_i[14]
*367 wbs_adr_i[15]
*368 wbs_adr_i[16]
*369 wbs_adr_i[17]
*370 wbs_adr_i[18]
*371 wbs_adr_i[19]
*372 wbs_adr_i[1]
*373 wbs_adr_i[20]
*374 wbs_adr_i[21]
*375 wbs_adr_i[22]
*376 wbs_adr_i[23]
*377 wbs_adr_i[24]
*378 wbs_adr_i[25]
*379 wbs_adr_i[26]
*380 wbs_adr_i[27]
*381 wbs_adr_i[28]
*382 wbs_adr_i[29]
*383 wbs_adr_i[2]
*384 wbs_adr_i[30]
*385 wbs_adr_i[31]
*386 wbs_adr_i[3]
*387 wbs_adr_i[4]
*388 wbs_adr_i[5]
*389 wbs_adr_i[6]
*390 wbs_adr_i[7]
*391 wbs_adr_i[8]
*392 wbs_adr_i[9]
*393 wbs_cyc_i
*394 wbs_dat_i[0]
*395 wbs_dat_i[10]
*396 wbs_dat_i[11]
*397 wbs_dat_i[12]
*398 wbs_dat_i[13]
*399 wbs_dat_i[14]
*400 wbs_dat_i[15]
*401 wbs_dat_i[16]
*402 wbs_dat_i[17]
*403 wbs_dat_i[18]
*404 wbs_dat_i[19]
*405 wbs_dat_i[1]
*406 wbs_dat_i[20]
*407 wbs_dat_i[21]
*408 wbs_dat_i[22]
*409 wbs_dat_i[23]
*410 wbs_dat_i[24]
*411 wbs_dat_i[25]
*412 wbs_dat_i[26]
*413 wbs_dat_i[27]
*414 wbs_dat_i[28]
*415 wbs_dat_i[29]
*416 wbs_dat_i[2]
*417 wbs_dat_i[30]
*418 wbs_dat_i[31]
*419 wbs_dat_i[3]
*420 wbs_dat_i[4]
*421 wbs_dat_i[5]
*422 wbs_dat_i[6]
*423 wbs_dat_i[7]
*424 wbs_dat_i[8]
*425 wbs_dat_i[9]
*426 wbs_sel_i[0]
*427 wbs_sel_i[1]
*428 wbs_sel_i[2]
*429 wbs_sel_i[3]
*430 wbs_stb_i
*431 wbs_we_i
*433 top_I\.branch\[0\]\.block\[0\]\.um_I\.ana\[2\]
*434 top_I\.branch\[0\]\.block\[0\]\.um_I\.ana\[3\]
*435 top_I\.branch\[0\]\.block\[0\]\.um_I\.ana\[4\]
*436 top_I\.branch\[0\]\.block\[0\]\.um_I\.ana\[5\]
*437 top_I\.branch\[0\]\.block\[0\]\.um_I\.ana\[6\]
*438 top_I\.branch\[0\]\.block\[0\]\.um_I\.ana\[7\]
*439 top_I\.branch\[0\]\.block\[0\]\.um_I\.clk
*440 top_I\.branch\[0\]\.block\[0\]\.um_I\.ena
*441 top_I\.branch\[0\]\.block\[0\]\.um_I\.iw\[10\]
*442 top_I\.branch\[0\]\.block\[0\]\.um_I\.iw\[11\]
*443 top_I\.branch\[0\]\.block\[0\]\.um_I\.iw\[12\]
*444 top_I\.branch\[0\]\.block\[0\]\.um_I\.iw\[13\]
*445 top_I\.branch\[0\]\.block\[0\]\.um_I\.iw\[14\]
*446 top_I\.branch\[0\]\.block\[0\]\.um_I\.iw\[15\]
*447 top_I\.branch\[0\]\.block\[0\]\.um_I\.iw\[16\]
*448 top_I\.branch\[0\]\.block\[0\]\.um_I\.iw\[17\]
*449 top_I\.branch\[0\]\.block\[0\]\.um_I\.iw\[1\]
*450 top_I\.branch\[0\]\.block\[0\]\.um_I\.iw\[2\]
*451 top_I\.branch\[0\]\.block\[0\]\.um_I\.iw\[3\]
*452 top_I\.branch\[0\]\.block\[0\]\.um_I\.iw\[4\]
*453 top_I\.branch\[0\]\.block\[0\]\.um_I\.iw\[5\]
*454 top_I\.branch\[0\]\.block\[0\]\.um_I\.iw\[6\]
*455 top_I\.branch\[0\]\.block\[0\]\.um_I\.iw\[7\]
*456 top_I\.branch\[0\]\.block\[0\]\.um_I\.iw\[8\]
*457 top_I\.branch\[0\]\.block\[0\]\.um_I\.iw\[9\]
*458 top_I\.branch\[0\]\.block\[0\]\.um_I\.k_zero
*459 top_I\.branch\[0\]\.block\[0\]\.um_I\.ow\[0\]
*460 top_I\.branch\[0\]\.block\[0\]\.um_I\.ow\[10\]
*461 top_I\.branch\[0\]\.block\[0\]\.um_I\.ow\[11\]
*462 top_I\.branch\[0\]\.block\[0\]\.um_I\.ow\[12\]
*463 top_I\.branch\[0\]\.block\[0\]\.um_I\.ow\[13\]
*464 top_I\.branch\[0\]\.block\[0\]\.um_I\.ow\[14\]
*465 top_I\.branch\[0\]\.block\[0\]\.um_I\.ow\[15\]
*466 top_I\.branch\[0\]\.block\[0\]\.um_I\.ow\[16\]
*467 top_I\.branch\[0\]\.block\[0\]\.um_I\.ow\[17\]
*468 top_I\.branch\[0\]\.block\[0\]\.um_I\.ow\[18\]
*469 top_I\.branch\[0\]\.block\[0\]\.um_I\.ow\[19\]
*470 top_I\.branch\[0\]\.block\[0\]\.um_I\.ow\[1\]
*471 top_I\.branch\[0\]\.block\[0\]\.um_I\.ow\[20\]
*472 top_I\.branch\[0\]\.block\[0\]\.um_I\.ow\[21\]
*473 top_I\.branch\[0\]\.block\[0\]\.um_I\.ow\[22\]
*474 top_I\.branch\[0\]\.block\[0\]\.um_I\.ow\[23\]
*475 top_I\.branch\[0\]\.block\[0\]\.um_I\.ow\[2\]
*476 top_I\.branch\[0\]\.block\[0\]\.um_I\.ow\[3\]
*477 top_I\.branch\[0\]\.block\[0\]\.um_I\.ow\[4\]
*478 top_I\.branch\[0\]\.block\[0\]\.um_I\.ow\[5\]
*479 top_I\.branch\[0\]\.block\[0\]\.um_I\.ow\[6\]
*480 top_I\.branch\[0\]\.block\[0\]\.um_I\.ow\[7\]
*481 top_I\.branch\[0\]\.block\[0\]\.um_I\.ow\[8\]
*482 top_I\.branch\[0\]\.block\[0\]\.um_I\.ow\[9\]
*483 top_I\.branch\[0\]\.block\[0\]\.um_I\.pg_vdd
*484 top_I\.branch\[0\]\.block\[10\]\.um_I\.ana\[2\]
*485 top_I\.branch\[0\]\.block\[10\]\.um_I\.ana\[3\]
*486 top_I\.branch\[0\]\.block\[10\]\.um_I\.ana\[4\]
*487 top_I\.branch\[0\]\.block\[10\]\.um_I\.ana\[5\]
*488 top_I\.branch\[0\]\.block\[10\]\.um_I\.ana\[6\]
*489 top_I\.branch\[0\]\.block\[10\]\.um_I\.ana\[7\]
*490 top_I\.branch\[0\]\.block\[10\]\.um_I\.clk
*491 top_I\.branch\[0\]\.block\[10\]\.um_I\.ena
*492 top_I\.branch\[0\]\.block\[10\]\.um_I\.iw\[10\]
*493 top_I\.branch\[0\]\.block\[10\]\.um_I\.iw\[11\]
*494 top_I\.branch\[0\]\.block\[10\]\.um_I\.iw\[12\]
*495 top_I\.branch\[0\]\.block\[10\]\.um_I\.iw\[13\]
*496 top_I\.branch\[0\]\.block\[10\]\.um_I\.iw\[14\]
*497 top_I\.branch\[0\]\.block\[10\]\.um_I\.iw\[15\]
*498 top_I\.branch\[0\]\.block\[10\]\.um_I\.iw\[16\]
*499 top_I\.branch\[0\]\.block\[10\]\.um_I\.iw\[17\]
*500 top_I\.branch\[0\]\.block\[10\]\.um_I\.iw\[1\]
*501 top_I\.branch\[0\]\.block\[10\]\.um_I\.iw\[2\]
*502 top_I\.branch\[0\]\.block\[10\]\.um_I\.iw\[3\]
*503 top_I\.branch\[0\]\.block\[10\]\.um_I\.iw\[4\]
*504 top_I\.branch\[0\]\.block\[10\]\.um_I\.iw\[5\]
*505 top_I\.branch\[0\]\.block\[10\]\.um_I\.iw\[6\]
*506 top_I\.branch\[0\]\.block\[10\]\.um_I\.iw\[7\]
*507 top_I\.branch\[0\]\.block\[10\]\.um_I\.iw\[8\]
*508 top_I\.branch\[0\]\.block\[10\]\.um_I\.iw\[9\]
*509 top_I\.branch\[0\]\.block\[10\]\.um_I\.k_zero
*510 top_I\.branch\[0\]\.block\[10\]\.um_I\.pg_vdd
*511 top_I\.branch\[0\]\.block\[11\]\.um_I\.ana\[2\]
*512 top_I\.branch\[0\]\.block\[11\]\.um_I\.ana\[3\]
*513 top_I\.branch\[0\]\.block\[11\]\.um_I\.ana\[4\]
*514 top_I\.branch\[0\]\.block\[11\]\.um_I\.ana\[5\]
*515 top_I\.branch\[0\]\.block\[11\]\.um_I\.ana\[6\]
*516 top_I\.branch\[0\]\.block\[11\]\.um_I\.ana\[7\]
*517 top_I\.branch\[0\]\.block\[11\]\.um_I\.clk
*518 top_I\.branch\[0\]\.block\[11\]\.um_I\.ena
*519 top_I\.branch\[0\]\.block\[11\]\.um_I\.iw\[10\]
*520 top_I\.branch\[0\]\.block\[11\]\.um_I\.iw\[11\]
*521 top_I\.branch\[0\]\.block\[11\]\.um_I\.iw\[12\]
*522 top_I\.branch\[0\]\.block\[11\]\.um_I\.iw\[13\]
*523 top_I\.branch\[0\]\.block\[11\]\.um_I\.iw\[14\]
*524 top_I\.branch\[0\]\.block\[11\]\.um_I\.iw\[15\]
*525 top_I\.branch\[0\]\.block\[11\]\.um_I\.iw\[16\]
*526 top_I\.branch\[0\]\.block\[11\]\.um_I\.iw\[17\]
*527 top_I\.branch\[0\]\.block\[11\]\.um_I\.iw\[1\]
*528 top_I\.branch\[0\]\.block\[11\]\.um_I\.iw\[2\]
*529 top_I\.branch\[0\]\.block\[11\]\.um_I\.iw\[3\]
*530 top_I\.branch\[0\]\.block\[11\]\.um_I\.iw\[4\]
*531 top_I\.branch\[0\]\.block\[11\]\.um_I\.iw\[5\]
*532 top_I\.branch\[0\]\.block\[11\]\.um_I\.iw\[6\]
*533 top_I\.branch\[0\]\.block\[11\]\.um_I\.iw\[7\]
*534 top_I\.branch\[0\]\.block\[11\]\.um_I\.iw\[8\]
*535 top_I\.branch\[0\]\.block\[11\]\.um_I\.iw\[9\]
*536 top_I\.branch\[0\]\.block\[11\]\.um_I\.k_zero
*537 top_I\.branch\[0\]\.block\[11\]\.um_I\.pg_vdd
*538 top_I\.branch\[0\]\.block\[12\]\.um_I\.ana\[2\]
*539 top_I\.branch\[0\]\.block\[12\]\.um_I\.ana\[3\]
*540 top_I\.branch\[0\]\.block\[12\]\.um_I\.ana\[4\]
*541 top_I\.branch\[0\]\.block\[12\]\.um_I\.ana\[5\]
*542 top_I\.branch\[0\]\.block\[12\]\.um_I\.ana\[6\]
*543 top_I\.branch\[0\]\.block\[12\]\.um_I\.ana\[7\]
*544 top_I\.branch\[0\]\.block\[12\]\.um_I\.clk
*545 top_I\.branch\[0\]\.block\[12\]\.um_I\.ena
*546 top_I\.branch\[0\]\.block\[12\]\.um_I\.iw\[10\]
*547 top_I\.branch\[0\]\.block\[12\]\.um_I\.iw\[11\]
*548 top_I\.branch\[0\]\.block\[12\]\.um_I\.iw\[12\]
*549 top_I\.branch\[0\]\.block\[12\]\.um_I\.iw\[13\]
*550 top_I\.branch\[0\]\.block\[12\]\.um_I\.iw\[14\]
*551 top_I\.branch\[0\]\.block\[12\]\.um_I\.iw\[15\]
*552 top_I\.branch\[0\]\.block\[12\]\.um_I\.iw\[16\]
*553 top_I\.branch\[0\]\.block\[12\]\.um_I\.iw\[17\]
*554 top_I\.branch\[0\]\.block\[12\]\.um_I\.iw\[1\]
*555 top_I\.branch\[0\]\.block\[12\]\.um_I\.iw\[2\]
*556 top_I\.branch\[0\]\.block\[12\]\.um_I\.iw\[3\]
*557 top_I\.branch\[0\]\.block\[12\]\.um_I\.iw\[4\]
*558 top_I\.branch\[0\]\.block\[12\]\.um_I\.iw\[5\]
*559 top_I\.branch\[0\]\.block\[12\]\.um_I\.iw\[6\]
*560 top_I\.branch\[0\]\.block\[12\]\.um_I\.iw\[7\]
*561 top_I\.branch\[0\]\.block\[12\]\.um_I\.iw\[8\]
*562 top_I\.branch\[0\]\.block\[12\]\.um_I\.iw\[9\]
*563 top_I\.branch\[0\]\.block\[12\]\.um_I\.k_zero
*564 top_I\.branch\[0\]\.block\[12\]\.um_I\.pg_vdd
*565 top_I\.branch\[0\]\.block\[13\]\.um_I\.ana\[2\]
*566 top_I\.branch\[0\]\.block\[13\]\.um_I\.ana\[3\]
*567 top_I\.branch\[0\]\.block\[13\]\.um_I\.ana\[4\]
*568 top_I\.branch\[0\]\.block\[13\]\.um_I\.ana\[5\]
*569 top_I\.branch\[0\]\.block\[13\]\.um_I\.ana\[6\]
*570 top_I\.branch\[0\]\.block\[13\]\.um_I\.ana\[7\]
*571 top_I\.branch\[0\]\.block\[13\]\.um_I\.clk
*572 top_I\.branch\[0\]\.block\[13\]\.um_I\.ena
*573 top_I\.branch\[0\]\.block\[13\]\.um_I\.iw\[10\]
*574 top_I\.branch\[0\]\.block\[13\]\.um_I\.iw\[11\]
*575 top_I\.branch\[0\]\.block\[13\]\.um_I\.iw\[12\]
*576 top_I\.branch\[0\]\.block\[13\]\.um_I\.iw\[13\]
*577 top_I\.branch\[0\]\.block\[13\]\.um_I\.iw\[14\]
*578 top_I\.branch\[0\]\.block\[13\]\.um_I\.iw\[15\]
*579 top_I\.branch\[0\]\.block\[13\]\.um_I\.iw\[16\]
*580 top_I\.branch\[0\]\.block\[13\]\.um_I\.iw\[17\]
*581 top_I\.branch\[0\]\.block\[13\]\.um_I\.iw\[1\]
*582 top_I\.branch\[0\]\.block\[13\]\.um_I\.iw\[2\]
*583 top_I\.branch\[0\]\.block\[13\]\.um_I\.iw\[3\]
*584 top_I\.branch\[0\]\.block\[13\]\.um_I\.iw\[4\]
*585 top_I\.branch\[0\]\.block\[13\]\.um_I\.iw\[5\]
*586 top_I\.branch\[0\]\.block\[13\]\.um_I\.iw\[6\]
*587 top_I\.branch\[0\]\.block\[13\]\.um_I\.iw\[7\]
*588 top_I\.branch\[0\]\.block\[13\]\.um_I\.iw\[8\]
*589 top_I\.branch\[0\]\.block\[13\]\.um_I\.iw\[9\]
*590 top_I\.branch\[0\]\.block\[13\]\.um_I\.k_zero
*591 top_I\.branch\[0\]\.block\[13\]\.um_I\.pg_vdd
*592 top_I\.branch\[0\]\.block\[14\]\.um_I\.ana\[2\]
*593 top_I\.branch\[0\]\.block\[14\]\.um_I\.ana\[3\]
*594 top_I\.branch\[0\]\.block\[14\]\.um_I\.ana\[4\]
*595 top_I\.branch\[0\]\.block\[14\]\.um_I\.ana\[5\]
*596 top_I\.branch\[0\]\.block\[14\]\.um_I\.ana\[6\]
*597 top_I\.branch\[0\]\.block\[14\]\.um_I\.ana\[7\]
*598 top_I\.branch\[0\]\.block\[14\]\.um_I\.clk
*599 top_I\.branch\[0\]\.block\[14\]\.um_I\.ena
*600 top_I\.branch\[0\]\.block\[14\]\.um_I\.iw\[10\]
*601 top_I\.branch\[0\]\.block\[14\]\.um_I\.iw\[11\]
*602 top_I\.branch\[0\]\.block\[14\]\.um_I\.iw\[12\]
*603 top_I\.branch\[0\]\.block\[14\]\.um_I\.iw\[13\]
*604 top_I\.branch\[0\]\.block\[14\]\.um_I\.iw\[14\]
*605 top_I\.branch\[0\]\.block\[14\]\.um_I\.iw\[15\]
*606 top_I\.branch\[0\]\.block\[14\]\.um_I\.iw\[16\]
*607 top_I\.branch\[0\]\.block\[14\]\.um_I\.iw\[17\]
*608 top_I\.branch\[0\]\.block\[14\]\.um_I\.iw\[1\]
*609 top_I\.branch\[0\]\.block\[14\]\.um_I\.iw\[2\]
*610 top_I\.branch\[0\]\.block\[14\]\.um_I\.iw\[3\]
*611 top_I\.branch\[0\]\.block\[14\]\.um_I\.iw\[4\]
*612 top_I\.branch\[0\]\.block\[14\]\.um_I\.iw\[5\]
*613 top_I\.branch\[0\]\.block\[14\]\.um_I\.iw\[6\]
*614 top_I\.branch\[0\]\.block\[14\]\.um_I\.iw\[7\]
*615 top_I\.branch\[0\]\.block\[14\]\.um_I\.iw\[8\]
*616 top_I\.branch\[0\]\.block\[14\]\.um_I\.iw\[9\]
*617 top_I\.branch\[0\]\.block\[14\]\.um_I\.k_zero
*618 top_I\.branch\[0\]\.block\[14\]\.um_I\.pg_vdd
*619 top_I\.branch\[0\]\.block\[15\]\.um_I\.ana\[2\]
*620 top_I\.branch\[0\]\.block\[15\]\.um_I\.ana\[3\]
*621 top_I\.branch\[0\]\.block\[15\]\.um_I\.ana\[4\]
*622 top_I\.branch\[0\]\.block\[15\]\.um_I\.ana\[5\]
*623 top_I\.branch\[0\]\.block\[15\]\.um_I\.ana\[6\]
*624 top_I\.branch\[0\]\.block\[15\]\.um_I\.ana\[7\]
*625 top_I\.branch\[0\]\.block\[15\]\.um_I\.clk
*626 top_I\.branch\[0\]\.block\[15\]\.um_I\.ena
*627 top_I\.branch\[0\]\.block\[15\]\.um_I\.iw\[10\]
*628 top_I\.branch\[0\]\.block\[15\]\.um_I\.iw\[11\]
*629 top_I\.branch\[0\]\.block\[15\]\.um_I\.iw\[12\]
*630 top_I\.branch\[0\]\.block\[15\]\.um_I\.iw\[13\]
*631 top_I\.branch\[0\]\.block\[15\]\.um_I\.iw\[14\]
*632 top_I\.branch\[0\]\.block\[15\]\.um_I\.iw\[15\]
*633 top_I\.branch\[0\]\.block\[15\]\.um_I\.iw\[16\]
*634 top_I\.branch\[0\]\.block\[15\]\.um_I\.iw\[17\]
*635 top_I\.branch\[0\]\.block\[15\]\.um_I\.iw\[1\]
*636 top_I\.branch\[0\]\.block\[15\]\.um_I\.iw\[2\]
*637 top_I\.branch\[0\]\.block\[15\]\.um_I\.iw\[3\]
*638 top_I\.branch\[0\]\.block\[15\]\.um_I\.iw\[4\]
*639 top_I\.branch\[0\]\.block\[15\]\.um_I\.iw\[5\]
*640 top_I\.branch\[0\]\.block\[15\]\.um_I\.iw\[6\]
*641 top_I\.branch\[0\]\.block\[15\]\.um_I\.iw\[7\]
*642 top_I\.branch\[0\]\.block\[15\]\.um_I\.iw\[8\]
*643 top_I\.branch\[0\]\.block\[15\]\.um_I\.iw\[9\]
*644 top_I\.branch\[0\]\.block\[15\]\.um_I\.k_zero
*645 top_I\.branch\[0\]\.block\[15\]\.um_I\.pg_vdd
*646 top_I\.branch\[0\]\.block\[1\]\.um_I\.ana\[2\]
*647 top_I\.branch\[0\]\.block\[1\]\.um_I\.ana\[3\]
*648 top_I\.branch\[0\]\.block\[1\]\.um_I\.ana\[4\]
*649 top_I\.branch\[0\]\.block\[1\]\.um_I\.ana\[5\]
*650 top_I\.branch\[0\]\.block\[1\]\.um_I\.ana\[6\]
*651 top_I\.branch\[0\]\.block\[1\]\.um_I\.ana\[7\]
*652 top_I\.branch\[0\]\.block\[1\]\.um_I\.clk
*653 top_I\.branch\[0\]\.block\[1\]\.um_I\.ena
*654 top_I\.branch\[0\]\.block\[1\]\.um_I\.iw\[10\]
*655 top_I\.branch\[0\]\.block\[1\]\.um_I\.iw\[11\]
*656 top_I\.branch\[0\]\.block\[1\]\.um_I\.iw\[12\]
*657 top_I\.branch\[0\]\.block\[1\]\.um_I\.iw\[13\]
*658 top_I\.branch\[0\]\.block\[1\]\.um_I\.iw\[14\]
*659 top_I\.branch\[0\]\.block\[1\]\.um_I\.iw\[15\]
*660 top_I\.branch\[0\]\.block\[1\]\.um_I\.iw\[16\]
*661 top_I\.branch\[0\]\.block\[1\]\.um_I\.iw\[17\]
*662 top_I\.branch\[0\]\.block\[1\]\.um_I\.iw\[1\]
*663 top_I\.branch\[0\]\.block\[1\]\.um_I\.iw\[2\]
*664 top_I\.branch\[0\]\.block\[1\]\.um_I\.iw\[3\]
*665 top_I\.branch\[0\]\.block\[1\]\.um_I\.iw\[4\]
*666 top_I\.branch\[0\]\.block\[1\]\.um_I\.iw\[5\]
*667 top_I\.branch\[0\]\.block\[1\]\.um_I\.iw\[6\]
*668 top_I\.branch\[0\]\.block\[1\]\.um_I\.iw\[7\]
*669 top_I\.branch\[0\]\.block\[1\]\.um_I\.iw\[8\]
*670 top_I\.branch\[0\]\.block\[1\]\.um_I\.iw\[9\]
*671 top_I\.branch\[0\]\.block\[1\]\.um_I\.k_zero
*672 top_I\.branch\[0\]\.block\[1\]\.um_I\.ow\[0\]
*673 top_I\.branch\[0\]\.block\[1\]\.um_I\.ow\[10\]
*674 top_I\.branch\[0\]\.block\[1\]\.um_I\.ow\[11\]
*675 top_I\.branch\[0\]\.block\[1\]\.um_I\.ow\[12\]
*676 top_I\.branch\[0\]\.block\[1\]\.um_I\.ow\[13\]
*677 top_I\.branch\[0\]\.block\[1\]\.um_I\.ow\[14\]
*678 top_I\.branch\[0\]\.block\[1\]\.um_I\.ow\[15\]
*679 top_I\.branch\[0\]\.block\[1\]\.um_I\.ow\[16\]
*680 top_I\.branch\[0\]\.block\[1\]\.um_I\.ow\[17\]
*681 top_I\.branch\[0\]\.block\[1\]\.um_I\.ow\[18\]
*682 top_I\.branch\[0\]\.block\[1\]\.um_I\.ow\[19\]
*683 top_I\.branch\[0\]\.block\[1\]\.um_I\.ow\[1\]
*684 top_I\.branch\[0\]\.block\[1\]\.um_I\.ow\[20\]
*685 top_I\.branch\[0\]\.block\[1\]\.um_I\.ow\[21\]
*686 top_I\.branch\[0\]\.block\[1\]\.um_I\.ow\[22\]
*687 top_I\.branch\[0\]\.block\[1\]\.um_I\.ow\[23\]
*688 top_I\.branch\[0\]\.block\[1\]\.um_I\.ow\[2\]
*689 top_I\.branch\[0\]\.block\[1\]\.um_I\.ow\[3\]
*690 top_I\.branch\[0\]\.block\[1\]\.um_I\.ow\[4\]
*691 top_I\.branch\[0\]\.block\[1\]\.um_I\.ow\[5\]
*692 top_I\.branch\[0\]\.block\[1\]\.um_I\.ow\[6\]
*693 top_I\.branch\[0\]\.block\[1\]\.um_I\.ow\[7\]
*694 top_I\.branch\[0\]\.block\[1\]\.um_I\.ow\[8\]
*695 top_I\.branch\[0\]\.block\[1\]\.um_I\.ow\[9\]
*696 top_I\.branch\[0\]\.block\[1\]\.um_I\.pg_vdd
*697 top_I\.branch\[0\]\.block\[2\]\.um_I\.ana\[2\]
*698 top_I\.branch\[0\]\.block\[2\]\.um_I\.ana\[3\]
*699 top_I\.branch\[0\]\.block\[2\]\.um_I\.ana\[4\]
*700 top_I\.branch\[0\]\.block\[2\]\.um_I\.ana\[5\]
*701 top_I\.branch\[0\]\.block\[2\]\.um_I\.ana\[6\]
*702 top_I\.branch\[0\]\.block\[2\]\.um_I\.ana\[7\]
*703 top_I\.branch\[0\]\.block\[2\]\.um_I\.clk
*704 top_I\.branch\[0\]\.block\[2\]\.um_I\.ena
*705 top_I\.branch\[0\]\.block\[2\]\.um_I\.iw\[10\]
*706 top_I\.branch\[0\]\.block\[2\]\.um_I\.iw\[11\]
*707 top_I\.branch\[0\]\.block\[2\]\.um_I\.iw\[12\]
*708 top_I\.branch\[0\]\.block\[2\]\.um_I\.iw\[13\]
*709 top_I\.branch\[0\]\.block\[2\]\.um_I\.iw\[14\]
*710 top_I\.branch\[0\]\.block\[2\]\.um_I\.iw\[15\]
*711 top_I\.branch\[0\]\.block\[2\]\.um_I\.iw\[16\]
*712 top_I\.branch\[0\]\.block\[2\]\.um_I\.iw\[17\]
*713 top_I\.branch\[0\]\.block\[2\]\.um_I\.iw\[1\]
*714 top_I\.branch\[0\]\.block\[2\]\.um_I\.iw\[2\]
*715 top_I\.branch\[0\]\.block\[2\]\.um_I\.iw\[3\]
*716 top_I\.branch\[0\]\.block\[2\]\.um_I\.iw\[4\]
*717 top_I\.branch\[0\]\.block\[2\]\.um_I\.iw\[5\]
*718 top_I\.branch\[0\]\.block\[2\]\.um_I\.iw\[6\]
*719 top_I\.branch\[0\]\.block\[2\]\.um_I\.iw\[7\]
*720 top_I\.branch\[0\]\.block\[2\]\.um_I\.iw\[8\]
*721 top_I\.branch\[0\]\.block\[2\]\.um_I\.iw\[9\]
*722 top_I\.branch\[0\]\.block\[2\]\.um_I\.k_zero
*723 top_I\.branch\[0\]\.block\[2\]\.um_I\.pg_vdd
*724 top_I\.branch\[0\]\.block\[3\]\.um_I\.ana\[2\]
*725 top_I\.branch\[0\]\.block\[3\]\.um_I\.ana\[3\]
*726 top_I\.branch\[0\]\.block\[3\]\.um_I\.ana\[4\]
*727 top_I\.branch\[0\]\.block\[3\]\.um_I\.ana\[5\]
*728 top_I\.branch\[0\]\.block\[3\]\.um_I\.ana\[6\]
*729 top_I\.branch\[0\]\.block\[3\]\.um_I\.ana\[7\]
*730 top_I\.branch\[0\]\.block\[3\]\.um_I\.clk
*731 top_I\.branch\[0\]\.block\[3\]\.um_I\.ena
*732 top_I\.branch\[0\]\.block\[3\]\.um_I\.iw\[10\]
*733 top_I\.branch\[0\]\.block\[3\]\.um_I\.iw\[11\]
*734 top_I\.branch\[0\]\.block\[3\]\.um_I\.iw\[12\]
*735 top_I\.branch\[0\]\.block\[3\]\.um_I\.iw\[13\]
*736 top_I\.branch\[0\]\.block\[3\]\.um_I\.iw\[14\]
*737 top_I\.branch\[0\]\.block\[3\]\.um_I\.iw\[15\]
*738 top_I\.branch\[0\]\.block\[3\]\.um_I\.iw\[16\]
*739 top_I\.branch\[0\]\.block\[3\]\.um_I\.iw\[17\]
*740 top_I\.branch\[0\]\.block\[3\]\.um_I\.iw\[1\]
*741 top_I\.branch\[0\]\.block\[3\]\.um_I\.iw\[2\]
*742 top_I\.branch\[0\]\.block\[3\]\.um_I\.iw\[3\]
*743 top_I\.branch\[0\]\.block\[3\]\.um_I\.iw\[4\]
*744 top_I\.branch\[0\]\.block\[3\]\.um_I\.iw\[5\]
*745 top_I\.branch\[0\]\.block\[3\]\.um_I\.iw\[6\]
*746 top_I\.branch\[0\]\.block\[3\]\.um_I\.iw\[7\]
*747 top_I\.branch\[0\]\.block\[3\]\.um_I\.iw\[8\]
*748 top_I\.branch\[0\]\.block\[3\]\.um_I\.iw\[9\]
*749 top_I\.branch\[0\]\.block\[3\]\.um_I\.k_zero
*750 top_I\.branch\[0\]\.block\[3\]\.um_I\.pg_vdd
*751 top_I\.branch\[0\]\.block\[4\]\.um_I\.ana\[2\]
*752 top_I\.branch\[0\]\.block\[4\]\.um_I\.ana\[3\]
*753 top_I\.branch\[0\]\.block\[4\]\.um_I\.ana\[4\]
*754 top_I\.branch\[0\]\.block\[4\]\.um_I\.ana\[5\]
*755 top_I\.branch\[0\]\.block\[4\]\.um_I\.ana\[6\]
*756 top_I\.branch\[0\]\.block\[4\]\.um_I\.ana\[7\]
*757 top_I\.branch\[0\]\.block\[4\]\.um_I\.clk
*758 top_I\.branch\[0\]\.block\[4\]\.um_I\.ena
*759 top_I\.branch\[0\]\.block\[4\]\.um_I\.iw\[10\]
*760 top_I\.branch\[0\]\.block\[4\]\.um_I\.iw\[11\]
*761 top_I\.branch\[0\]\.block\[4\]\.um_I\.iw\[12\]
*762 top_I\.branch\[0\]\.block\[4\]\.um_I\.iw\[13\]
*763 top_I\.branch\[0\]\.block\[4\]\.um_I\.iw\[14\]
*764 top_I\.branch\[0\]\.block\[4\]\.um_I\.iw\[15\]
*765 top_I\.branch\[0\]\.block\[4\]\.um_I\.iw\[16\]
*766 top_I\.branch\[0\]\.block\[4\]\.um_I\.iw\[17\]
*767 top_I\.branch\[0\]\.block\[4\]\.um_I\.iw\[1\]
*768 top_I\.branch\[0\]\.block\[4\]\.um_I\.iw\[2\]
*769 top_I\.branch\[0\]\.block\[4\]\.um_I\.iw\[3\]
*770 top_I\.branch\[0\]\.block\[4\]\.um_I\.iw\[4\]
*771 top_I\.branch\[0\]\.block\[4\]\.um_I\.iw\[5\]
*772 top_I\.branch\[0\]\.block\[4\]\.um_I\.iw\[6\]
*773 top_I\.branch\[0\]\.block\[4\]\.um_I\.iw\[7\]
*774 top_I\.branch\[0\]\.block\[4\]\.um_I\.iw\[8\]
*775 top_I\.branch\[0\]\.block\[4\]\.um_I\.iw\[9\]
*776 top_I\.branch\[0\]\.block\[4\]\.um_I\.k_zero
*777 top_I\.branch\[0\]\.block\[4\]\.um_I\.pg_vdd
*778 top_I\.branch\[0\]\.block\[5\]\.um_I\.ana\[2\]
*779 top_I\.branch\[0\]\.block\[5\]\.um_I\.ana\[3\]
*780 top_I\.branch\[0\]\.block\[5\]\.um_I\.ana\[4\]
*781 top_I\.branch\[0\]\.block\[5\]\.um_I\.ana\[5\]
*782 top_I\.branch\[0\]\.block\[5\]\.um_I\.ana\[6\]
*783 top_I\.branch\[0\]\.block\[5\]\.um_I\.ana\[7\]
*784 top_I\.branch\[0\]\.block\[5\]\.um_I\.clk
*785 top_I\.branch\[0\]\.block\[5\]\.um_I\.ena
*786 top_I\.branch\[0\]\.block\[5\]\.um_I\.iw\[10\]
*787 top_I\.branch\[0\]\.block\[5\]\.um_I\.iw\[11\]
*788 top_I\.branch\[0\]\.block\[5\]\.um_I\.iw\[12\]
*789 top_I\.branch\[0\]\.block\[5\]\.um_I\.iw\[13\]
*790 top_I\.branch\[0\]\.block\[5\]\.um_I\.iw\[14\]
*791 top_I\.branch\[0\]\.block\[5\]\.um_I\.iw\[15\]
*792 top_I\.branch\[0\]\.block\[5\]\.um_I\.iw\[16\]
*793 top_I\.branch\[0\]\.block\[5\]\.um_I\.iw\[17\]
*794 top_I\.branch\[0\]\.block\[5\]\.um_I\.iw\[1\]
*795 top_I\.branch\[0\]\.block\[5\]\.um_I\.iw\[2\]
*796 top_I\.branch\[0\]\.block\[5\]\.um_I\.iw\[3\]
*797 top_I\.branch\[0\]\.block\[5\]\.um_I\.iw\[4\]
*798 top_I\.branch\[0\]\.block\[5\]\.um_I\.iw\[5\]
*799 top_I\.branch\[0\]\.block\[5\]\.um_I\.iw\[6\]
*800 top_I\.branch\[0\]\.block\[5\]\.um_I\.iw\[7\]
*801 top_I\.branch\[0\]\.block\[5\]\.um_I\.iw\[8\]
*802 top_I\.branch\[0\]\.block\[5\]\.um_I\.iw\[9\]
*803 top_I\.branch\[0\]\.block\[5\]\.um_I\.k_zero
*804 top_I\.branch\[0\]\.block\[5\]\.um_I\.pg_vdd
*805 top_I\.branch\[0\]\.block\[6\]\.um_I\.ana\[2\]
*806 top_I\.branch\[0\]\.block\[6\]\.um_I\.ana\[3\]
*807 top_I\.branch\[0\]\.block\[6\]\.um_I\.ana\[4\]
*808 top_I\.branch\[0\]\.block\[6\]\.um_I\.ana\[5\]
*809 top_I\.branch\[0\]\.block\[6\]\.um_I\.ana\[6\]
*810 top_I\.branch\[0\]\.block\[6\]\.um_I\.ana\[7\]
*811 top_I\.branch\[0\]\.block\[6\]\.um_I\.clk
*812 top_I\.branch\[0\]\.block\[6\]\.um_I\.ena
*813 top_I\.branch\[0\]\.block\[6\]\.um_I\.iw\[10\]
*814 top_I\.branch\[0\]\.block\[6\]\.um_I\.iw\[11\]
*815 top_I\.branch\[0\]\.block\[6\]\.um_I\.iw\[12\]
*816 top_I\.branch\[0\]\.block\[6\]\.um_I\.iw\[13\]
*817 top_I\.branch\[0\]\.block\[6\]\.um_I\.iw\[14\]
*818 top_I\.branch\[0\]\.block\[6\]\.um_I\.iw\[15\]
*819 top_I\.branch\[0\]\.block\[6\]\.um_I\.iw\[16\]
*820 top_I\.branch\[0\]\.block\[6\]\.um_I\.iw\[17\]
*821 top_I\.branch\[0\]\.block\[6\]\.um_I\.iw\[1\]
*822 top_I\.branch\[0\]\.block\[6\]\.um_I\.iw\[2\]
*823 top_I\.branch\[0\]\.block\[6\]\.um_I\.iw\[3\]
*824 top_I\.branch\[0\]\.block\[6\]\.um_I\.iw\[4\]
*825 top_I\.branch\[0\]\.block\[6\]\.um_I\.iw\[5\]
*826 top_I\.branch\[0\]\.block\[6\]\.um_I\.iw\[6\]
*827 top_I\.branch\[0\]\.block\[6\]\.um_I\.iw\[7\]
*828 top_I\.branch\[0\]\.block\[6\]\.um_I\.iw\[8\]
*829 top_I\.branch\[0\]\.block\[6\]\.um_I\.iw\[9\]
*830 top_I\.branch\[0\]\.block\[6\]\.um_I\.k_zero
*831 top_I\.branch\[0\]\.block\[6\]\.um_I\.pg_vdd
*832 top_I\.branch\[0\]\.block\[7\]\.um_I\.ana\[2\]
*833 top_I\.branch\[0\]\.block\[7\]\.um_I\.ana\[3\]
*834 top_I\.branch\[0\]\.block\[7\]\.um_I\.ana\[4\]
*835 top_I\.branch\[0\]\.block\[7\]\.um_I\.ana\[5\]
*836 top_I\.branch\[0\]\.block\[7\]\.um_I\.ana\[6\]
*837 top_I\.branch\[0\]\.block\[7\]\.um_I\.ana\[7\]
*838 top_I\.branch\[0\]\.block\[7\]\.um_I\.clk
*839 top_I\.branch\[0\]\.block\[7\]\.um_I\.ena
*840 top_I\.branch\[0\]\.block\[7\]\.um_I\.iw\[10\]
*841 top_I\.branch\[0\]\.block\[7\]\.um_I\.iw\[11\]
*842 top_I\.branch\[0\]\.block\[7\]\.um_I\.iw\[12\]
*843 top_I\.branch\[0\]\.block\[7\]\.um_I\.iw\[13\]
*844 top_I\.branch\[0\]\.block\[7\]\.um_I\.iw\[14\]
*845 top_I\.branch\[0\]\.block\[7\]\.um_I\.iw\[15\]
*846 top_I\.branch\[0\]\.block\[7\]\.um_I\.iw\[16\]
*847 top_I\.branch\[0\]\.block\[7\]\.um_I\.iw\[17\]
*848 top_I\.branch\[0\]\.block\[7\]\.um_I\.iw\[1\]
*849 top_I\.branch\[0\]\.block\[7\]\.um_I\.iw\[2\]
*850 top_I\.branch\[0\]\.block\[7\]\.um_I\.iw\[3\]
*851 top_I\.branch\[0\]\.block\[7\]\.um_I\.iw\[4\]
*852 top_I\.branch\[0\]\.block\[7\]\.um_I\.iw\[5\]
*853 top_I\.branch\[0\]\.block\[7\]\.um_I\.iw\[6\]
*854 top_I\.branch\[0\]\.block\[7\]\.um_I\.iw\[7\]
*855 top_I\.branch\[0\]\.block\[7\]\.um_I\.iw\[8\]
*856 top_I\.branch\[0\]\.block\[7\]\.um_I\.iw\[9\]
*857 top_I\.branch\[0\]\.block\[7\]\.um_I\.k_zero
*858 top_I\.branch\[0\]\.block\[7\]\.um_I\.pg_vdd
*859 top_I\.branch\[0\]\.block\[8\]\.um_I\.ana\[2\]
*860 top_I\.branch\[0\]\.block\[8\]\.um_I\.ana\[3\]
*861 top_I\.branch\[0\]\.block\[8\]\.um_I\.ana\[4\]