*SPEF "ieee 1481-1999"
*DESIGN "tt_um_template"
*DATE "19:37:01 Thursday May 30, 2024"
*VENDOR "The OpenROAD Project"
*PROGRAM "OpenROAD"
*VERSION "da0053d7b0014ab9c87ea148875ff6c2a0f9b658"
*DESIGN_FLOW "NAME_SCOPE LOCAL" "PIN_CAP NONE"
*DIVIDER /
*DELIMITER :
*BUS_DELIMITER []
*T_UNIT 1 NS
*C_UNIT 1 PF
*R_UNIT 1 OHM
*L_UNIT 1 HENRY

*NAME_MAP
*3 clk
*4 ena
*5 rst_n
*6 ui_in[0]
*7 ui_in[1]
*8 ui_in[2]
*9 ui_in[3]
*10 ui_in[4]
*11 ui_in[5]
*12 ui_in[6]
*13 ui_in[7]
*14 uio_in[0]
*15 uio_in[1]
*16 uio_in[2]
*17 uio_in[3]
*18 uio_in[4]
*19 uio_in[5]
*20 uio_in[6]
*21 uio_in[7]
*22 net24
*23 net25
*24 net26
*25 net27
*26 net28
*27 net29
*28 net30
*29 net31
*30 uio_out[0]
*31 uio_out[1]
*32 uio_out[2]
*33 uio_out[3]
*34 net32
*35 net33
*36 net34
*37 net35
*38 uo_out[0]
*39 uo_out[1]
*40 uo_out[2]
*41 uo_out[3]
*42 uo_out[4]
*43 uo_out[5]
*44 uo_out[6]
*45 uo_out[7]
*46 _0000_
*47 _0001_
*48 _0002_
*49 _0003_
*50 _0004_
*51 _0005_
*52 _0006_
*53 _0007_
*54 _0008_
*55 _0009_
*56 _0010_
*57 _0011_
*58 _0012_
*59 _0013_
*60 _0014_
*61 _0015_
*62 _0016_
*63 _0017_
*64 _0018_
*65 _0019_
*66 _0020_
*67 _0021_
*68 _0022_
*69 _0023_
*70 _0024_
*71 _0025_
*72 _0026_
*73 _0027_
*74 _0028_
*75 _0029_
*76 _0030_
*77 _0031_
*78 _0032_
*79 _0033_
*80 _0034_
*81 _0035_
*82 _0036_
*83 _0037_
*84 _0038_
*85 _0039_
*86 _0040_
*87 _0041_
*88 _0042_
*89 _0043_
*90 _0044_
*91 _0045_
*92 _0046_
*93 _0047_
*94 _0048_
*95 _0049_
*96 _0050_
*97 _0051_
*98 _0052_
*99 _0053_
*100 _0054_
*101 _0055_
*102 _0056_
*103 _0057_
*104 _0058_
*105 _0059_
*106 _0060_
*107 _0061_
*108 _0062_
*109 _0063_
*110 _0064_
*111 _0065_
*112 _0066_
*113 _0067_
*114 _0068_
*115 _0069_
*116 _0070_
*117 _0071_
*118 _0072_
*119 _0073_
*120 _0074_
*121 _0075_
*122 _0076_
*123 _0077_
*124 _0078_
*125 _0079_
*126 _0080_
*127 _0081_
*128 _0082_
*129 _0083_
*130 _0084_
*131 _0085_
*132 _0086_
*133 _0087_
*134 _0088_
*135 _0089_
*136 _0090_
*137 _0091_
*138 _0092_
*139 _0093_
*140 _0094_
*141 _0095_
*142 _0096_
*143 _0097_
*144 _0098_
*145 _0099_
*146 _0100_
*147 _0101_
*148 _0102_
*149 _0103_
*150 _0104_
*151 _0105_
*152 _0106_
*153 _0107_
*154 _0108_
*155 _0109_
*156 _0110_
*157 _0111_
*158 _0112_
*159 _0113_
*160 _0114_
*161 _0115_
*162 _0116_
*163 _0117_
*164 _0118_
*165 _0119_
*166 _0120_
*167 _0121_
*168 _0122_
*169 _0123_
*170 _0124_
*171 _0125_
*172 _0126_
*173 _0127_
*174 _0128_
*175 _0129_
*176 _0130_
*177 _0131_
*178 _0132_
*179 _0133_
*180 _0134_
*181 _0135_
*182 _0136_
*183 _0137_
*184 _0138_
*185 _0139_
*186 _0140_
*187 _0141_
*188 _0142_
*189 _0143_
*190 _0144_
*191 _0145_
*192 _0146_
*193 _0147_
*194 _0148_
*195 _0149_
*196 _0150_
*197 _0151_
*198 _0152_
*199 _0153_
*200 _0154_
*201 _0155_
*202 _0156_
*203 _0157_
*204 _0158_
*205 _0159_
*206 _0160_
*207 _0161_
*208 _0162_
*209 _0163_
*210 _0164_
*211 _0165_
*212 _0166_
*213 _0167_
*214 _0168_
*215 _0169_
*216 _0170_
*217 _0171_
*218 _0172_
*219 _0173_
*220 _0174_
*221 _0175_
*222 _0176_
*223 _0177_
*224 _0178_
*225 _0179_
*226 _0180_
*227 _0181_
*228 _0182_
*229 _0183_
*230 _0184_
*231 _0185_
*232 _0186_
*233 _0187_
*234 _0188_
*235 _0189_
*236 _0190_
*237 _0191_
*238 _0192_
*239 _0193_
*240 _0194_
*241 _0195_
*242 _0196_
*243 _0197_
*244 _0198_
*245 _0199_
*246 _0200_
*247 _0201_
*248 _0202_
*249 _0203_
*250 _0204_
*251 _0205_
*252 _0206_
*253 _0207_
*254 _0208_
*255 _0209_
*256 _0210_
*257 _0211_
*258 _0212_
*259 _0213_
*260 _0214_
*261 _0215_
*262 _0216_
*263 _0217_
*264 _0218_
*265 _0219_
*266 _0220_
*267 _0221_
*268 _0222_
*269 _0223_
*270 _0224_
*271 _0225_
*272 _0226_
*273 _0227_
*274 _0228_
*275 _0229_
*276 _0230_
*277 _0231_
*278 _0232_
*279 _0233_
*280 _0234_
*281 _0235_
*282 _0236_
*283 _0237_
*284 _0238_
*285 _0239_
*286 _0240_
*287 _0241_
*288 _0242_
*289 _0243_
*290 _0244_
*291 _0245_
*292 _0246_
*293 _0247_
*294 _0248_
*295 _0249_
*296 _0250_
*297 _0251_
*298 _0252_
*299 _0253_
*300 _0254_
*301 _0255_
*302 _0256_
*303 _0257_
*304 _0258_
*305 _0259_
*306 _0260_
*307 _0261_
*308 _0262_
*309 _0263_
*310 _0264_
*311 _0265_
*312 _0266_
*313 _0267_
*314 _0268_
*315 _0269_
*316 _0270_
*317 _0271_
*318 _0272_
*319 _0273_
*320 _0274_
*321 _0275_
*322 _0276_
*323 _0277_
*324 _0278_
*325 _0279_
*326 _0280_
*327 _0281_
*328 _0282_
*329 _0283_
*330 _0284_
*331 _0285_
*332 _0286_
*333 _0287_
*334 _0288_
*335 _0289_
*336 _0290_
*337 _0291_
*338 _0292_
*339 _0293_
*340 _0294_
*341 _0295_
*342 _0296_
*343 _0297_
*344 _0298_
*345 _0299_
*346 _0300_
*347 _0301_
*348 _0302_
*349 _0303_
*350 _0304_
*351 _0305_
*352 _0306_
*353 _0307_
*354 _0308_
*355 _0309_
*356 _0310_
*357 _0311_
*358 _0312_
*359 _0313_
*360 _0314_
*361 _0315_
*362 _0316_
*363 _0317_
*364 _0318_
*365 _0319_
*366 _0320_
*367 _0321_
*368 _0322_
*369 _0323_
*370 _0324_
*371 _0325_
*372 _0326_
*373 _0327_
*374 _0328_
*375 _0329_
*376 _0330_
*377 _0331_
*378 _0332_
*379 _0333_
*380 _0334_
*381 _0335_
*382 _0336_
*383 _0337_
*384 _0338_
*385 _0339_
*386 _0340_
*387 _0341_
*388 _0342_
*389 _0343_
*390 _0344_
*391 _0345_
*392 _0346_
*393 _0347_
*394 _0348_
*395 _0349_
*396 _0350_
*397 _0351_
*398 _0352_
*399 _0353_
*400 _0354_
*401 _0355_
*402 _0356_
*403 _0357_
*404 _0358_
*405 _0359_
*406 _0360_
*407 _0361_
*408 _0362_
*409 _0363_
*410 _0364_
*411 _0365_
*412 _0366_
*413 _0367_
*414 _0368_
*415 _0369_
*416 _0370_
*417 _0371_
*418 clknet_0_clk
*419 clknet_4_0_0_clk
*420 clknet_4_10_0_clk
*421 clknet_4_11_0_clk
*422 clknet_4_12_0_clk
*423 clknet_4_13_0_clk
*424 clknet_4_14_0_clk
*425 clknet_4_15_0_clk
*426 clknet_4_1_0_clk
*427 clknet_4_2_0_clk
*428 clknet_4_3_0_clk
*429 clknet_4_4_0_clk
*430 clknet_4_5_0_clk
*431 clknet_4_6_0_clk
*432 clknet_4_7_0_clk
*433 clknet_4_8_0_clk
*434 clknet_4_9_0_clk
*435 cnt\[0\]
*436 cnt\[10\]
*437 cnt\[11\]
*438 cnt\[12\]
*439 cnt\[13\]
*440 cnt\[1\]
*441 cnt\[2\]
*442 cnt\[3\]
*443 cnt\[4\]
*444 cnt\[5\]
*445 cnt\[6\]
*446 cnt\[7\]
*447 cnt\[8\]
*448 cnt\[9\]
*449 inputs_candidate\[10\]
*450 inputs_candidate\[11\]
*451 inputs_candidate\[12\]
*452 inputs_candidate\[13\]
*453 inputs_candidate\[14\]
*454 inputs_candidate\[15\]
*455 inputs_candidate\[16\]
*456 inputs_candidate\[17\]
*457 inputs_candidate\[1\]
*458 inputs_candidate\[2\]
*459 inputs_candidate\[3\]
*460 inputs_candidate\[4\]
*461 inputs_candidate\[5\]
*462 inputs_candidate\[6\]
*463 inputs_candidate\[7\]
*464 inputs_candidate\[8\]
*465 inputs_candidate\[9\]
*466 inputs_ff\[0\]
*467 inputs_ff\[10\]
*468 inputs_ff\[11\]
*469 inputs_ff\[12\]
*470 inputs_ff\[13\]
*471 inputs_ff\[14\]
*472 inputs_ff\[15\]
*473 inputs_ff\[16\]
*474 inputs_ff\[17\]
*475 inputs_ff\[1\]
*476 inputs_ff\[2\]
*477 inputs_ff\[3\]
*478 inputs_ff\[4\]
*479 inputs_ff\[5\]
*480 inputs_ff\[6\]
*481 inputs_ff\[7\]
*482 inputs_ff\[8\]
*483 inputs_ff\[9\]
*484 inputs_sync\[0\]
*485 inputs_sync\[10\]
*486 inputs_sync\[11\]
*487 inputs_sync\[12\]
*488 inputs_sync\[13\]
*489 inputs_sync\[14\]
*490 inputs_sync\[15\]
*491 inputs_sync\[16\]
*492 inputs_sync\[17\]
*493 inputs_sync\[1\]
*494 inputs_sync\[2\]
*495 inputs_sync\[3\]
*496 inputs_sync\[4\]
*497 inputs_sync\[5\]
*498 inputs_sync\[6\]
*499 inputs_sync\[7\]
*500 inputs_sync\[8\]
*501 inputs_sync\[9\]
*502 my_design\.DEBUG_SIGS_GTKWAVE\.\@0\$slideswitch\[0\]
*503 my_design\.DEBUG_SIGS_GTKWAVE\.\@0\$slideswitch\[1\]
*504 my_design\.DEBUG_SIGS_GTKWAVE\.\@0\$slideswitch\[2\]
*505 my_design\.DEBUG_SIGS_GTKWAVE\.\@0\$slideswitch\[3\]
*506 my_design\.DEBUG_SIGS_GTKWAVE\.\@0\$slideswitch\[4\]
*507 my_design\.DEBUG_SIGS_GTKWAVE\.\@0\$slideswitch\[5\]
*508 my_design\.DEBUG_SIGS_GTKWAVE\.\@0\$slideswitch\[6\]
*509 my_design\.DEBUG_SIGS_GTKWAVE\.\@0\$slideswitch\[7\]
*510 my_design\.DEBUG_SIGS_GTKWAVE\.\@0\$sseg_decimal_point_n
*511 my_design\.DEBUG_SIGS_GTKWAVE\.\@0\$sseg_segment_n\[0\]
*512 my_design\.DEBUG_SIGS_GTKWAVE\.\@0\$sseg_segment_n\[1\]
*513 my_design\.DEBUG_SIGS_GTKWAVE\.\@0\$sseg_segment_n\[2\]
*514 my_design\.DEBUG_SIGS_GTKWAVE\.\@0\$sseg_segment_n\[3\]
*515 my_design\.DEBUG_SIGS_GTKWAVE\.\@0\$sseg_segment_n\[4\]
*516 my_design\.DEBUG_SIGS_GTKWAVE\.\@0\$sseg_segment_n\[5\]
*517 my_design\.DEBUG_SIGS_GTKWAVE\.\@0\$sseg_segment_n\[6\]
*518 my_design\.DEBUG_SIGS_GTKWAVE\.\/digit\[0\]\.\/leds\[0\]\.\/\/\@0\$viz_lit
*519 my_design\.DEBUG_SIGS_GTKWAVE\.\/digit\[0\]\.\/leds\[1\]\.\/\/\@0\$viz_lit
*520 my_design\.DEBUG_SIGS_GTKWAVE\.\/digit\[0\]\.\/leds\[2\]\.\/\/\@0\$viz_lit
*521 my_design\.DEBUG_SIGS_GTKWAVE\.\/digit\[0\]\.\/leds\[3\]\.\/\/\@0\$viz_lit
*522 my_design\.DEBUG_SIGS_GTKWAVE\.\/digit\[0\]\.\/leds\[4\]\.\/\/\@0\$viz_lit
*523 my_design\.DEBUG_SIGS_GTKWAVE\.\/digit\[0\]\.\/leds\[5\]\.\/\/\@0\$viz_lit
*524 my_design\.DEBUG_SIGS_GTKWAVE\.\/digit\[0\]\.\/leds\[6\]\.\/\/\@0\$viz_lit
*525 my_design\.DEBUG_SIGS_GTKWAVE\.\/digit\[0\]\.\/leds\[7\]\.\/\/\@0\$viz_lit
*526 my_design\.DEBUG_SIGS_GTKWAVE\.\/fpga_pins\.\/fpga\.P_clock_time\.\/\/\/\@0\$cathode_cycle\[0\]
*527 my_design\.DEBUG_SIGS_GTKWAVE\.\/fpga_pins\.\/fpga\.P_clock_time\.\/\/\/\@0\$cathode_cycle\[1\]
*528 my_design\.DEBUG_SIGS_GTKWAVE\.\/fpga_pins\.\/fpga\.P_clock_time\.\/\/\/\@0\$cathodes\[0\]
*529 my_design\.DEBUG_SIGS_GTKWAVE\.\/fpga_pins\.\/fpga\.P_clock_time\.\/\/\/\@0\$cathodes\[1\]
*530 my_design\.DEBUG_SIGS_GTKWAVE\.\/fpga_pins\.\/fpga\.P_clock_time\.\/\/\/\@0\$cathodes\[2\]
*531 my_design\.DEBUG_SIGS_GTKWAVE\.\/fpga_pins\.\/fpga\.P_clock_time\.\/\/\/\@0\$cathodes\[3\]
*532 my_design\.DEBUG_SIGS_GTKWAVE\.\/fpga_pins\.\/fpga\.P_clock_time\.\/\/\/\@0\$cycounter\[0\]
*533 my_design\.DEBUG_SIGS_GTKWAVE\.\/fpga_pins\.\/fpga\.P_clock_time\.\/\/\/\@0\$cycounter\[10\]
*534 my_design\.DEBUG_SIGS_GTKWAVE\.\/fpga_pins\.\/fpga\.P_clock_time\.\/\/\/\@0\$cycounter\[11\]
*535 my_design\.DEBUG_SIGS_GTKWAVE\.\/fpga_pins\.\/fpga\.P_clock_time\.\/\/\/\@0\$cycounter\[12\]
*536 my_design\.DEBUG_SIGS_GTKWAVE\.\/fpga_pins\.\/fpga\.P_clock_time\.\/\/\/\@0\$cycounter\[13\]
*537 my_design\.DEBUG_SIGS_GTKWAVE\.\/fpga_pins\.\/fpga\.P_clock_time\.\/\/\/\@0\$cycounter\[14\]
*538 my_design\.DEBUG_SIGS_GTKWAVE\.\/fpga_pins\.\/fpga\.P_clock_time\.\/\/\/\@0\$cycounter\[15\]
*539 my_design\.DEBUG_SIGS_GTKWAVE\.\/fpga_pins\.\/fpga\.P_clock_time\.\/\/\/\@0\$cycounter\[16\]
*540 my_design\.DEBUG_SIGS_GTKWAVE\.\/fpga_pins\.\/fpga\.P_clock_time\.\/\/\/\@0\$cycounter\[17\]
*541 my_design\.DEBUG_SIGS_GTKWAVE\.\/fpga_pins\.\/fpga\.P_clock_time\.\/\/\/\@0\$cycounter\[18\]
*542 my_design\.DEBUG_SIGS_GTKWAVE\.\/fpga_pins\.\/fpga\.P_clock_time\.\/\/\/\@0\$cycounter\[19\]
*543 my_design\.DEBUG_SIGS_GTKWAVE\.\/fpga_pins\.\/fpga\.P_clock_time\.\/\/\/\@0\$cycounter\[1\]
*544 my_design\.DEBUG_SIGS_GTKWAVE\.\/fpga_pins\.\/fpga\.P_clock_time\.\/\/\/\@0\$cycounter\[20\]
*545 my_design\.DEBUG_SIGS_GTKWAVE\.\/fpga_pins\.\/fpga\.P_clock_time\.\/\/\/\@0\$cycounter\[21\]
*546 my_design\.DEBUG_SIGS_GTKWAVE\.\/fpga_pins\.\/fpga\.P_clock_time\.\/\/\/\@0\$cycounter\[22\]
*547 my_design\.DEBUG_SIGS_GTKWAVE\.\/fpga_pins\.\/fpga\.P_clock_time\.\/\/\/\@0\$cycounter\[23\]
*548 my_design\.DEBUG_SIGS_GTKWAVE\.\/fpga_pins\.\/fpga\.P_clock_time\.\/\/\/\@0\$cycounter\[24\]
*549 my_design\.DEBUG_SIGS_GTKWAVE\.\/fpga_pins\.\/fpga\.P_clock_time\.\/\/\/\@0\$cycounter\[2\]
*550 my_design\.DEBUG_SIGS_GTKWAVE\.\/fpga_pins\.\/fpga\.P_clock_time\.\/\/\/\@0\$cycounter\[3\]
*551 my_design\.DEBUG_SIGS_GTKWAVE\.\/fpga_pins\.\/fpga\.P_clock_time\.\/\/\/\@0\$cycounter\[4\]
*552 my_design\.DEBUG_SIGS_GTKWAVE\.\/fpga_pins\.\/fpga\.P_clock_time\.\/\/\/\@0\$cycounter\[5\]
*553 my_design\.DEBUG_SIGS_GTKWAVE\.\/fpga_pins\.\/fpga\.P_clock_time\.\/\/\/\@0\$cycounter\[6\]
*554 my_design\.DEBUG_SIGS_GTKWAVE\.\/fpga_pins\.\/fpga\.P_clock_time\.\/\/\/\@0\$cycounter\[7\]
*555 my_design\.DEBUG_SIGS_GTKWAVE\.\/fpga_pins\.\/fpga\.P_clock_time\.\/\/\/\@0\$cycounter\[8\]
*556 my_design\.DEBUG_SIGS_GTKWAVE\.\/fpga_pins\.\/fpga\.P_clock_time\.\/\/\/\@0\$cycounter\[9\]
*557 my_design\.DEBUG_SIGS_GTKWAVE\.\/fpga_pins\.\/fpga\.P_clock_time\.\/\/\/\@0\$digit\[0\]
*558 my_design\.DEBUG_SIGS_GTKWAVE\.\/fpga_pins\.\/fpga\.P_clock_time\.\/\/\/\@0\$digit\[1\]
*559 my_design\.DEBUG_SIGS_GTKWAVE\.\/fpga_pins\.\/fpga\.P_clock_time\.\/\/\/\@0\$digit\[2\]
*560 my_design\.DEBUG_SIGS_GTKWAVE\.\/fpga_pins\.\/fpga\.P_clock_time\.\/\/\/\@0\$digit\[3\]
*561 my_design\.DEBUG_SIGS_GTKWAVE\.\/fpga_pins\.\/fpga\.P_clock_time\.\/\/\/\@0\$display_hours\[0\]
*562 my_design\.DEBUG_SIGS_GTKWAVE\.\/fpga_pins\.\/fpga\.P_clock_time\.\/\/\/\@0\$display_hours\[1\]
*563 my_design\.DEBUG_SIGS_GTKWAVE\.\/fpga_pins\.\/fpga\.P_clock_time\.\/\/\/\@0\$display_hours\[2\]
*564 my_design\.DEBUG_SIGS_GTKWAVE\.\/fpga_pins\.\/fpga\.P_clock_time\.\/\/\/\@0\$display_hours\[3\]
*565 my_design\.DEBUG_SIGS_GTKWAVE\.\/fpga_pins\.\/fpga\.P_clock_time\.\/\/\/\@0\$display_minutes\[0\]
*566 my_design\.DEBUG_SIGS_GTKWAVE\.\/fpga_pins\.\/fpga\.P_clock_time\.\/\/\/\@0\$display_minutes\[1\]
*567 my_design\.DEBUG_SIGS_GTKWAVE\.\/fpga_pins\.\/fpga\.P_clock_time\.\/\/\/\@0\$display_minutes\[2\]
*568 my_design\.DEBUG_SIGS_GTKWAVE\.\/fpga_pins\.\/fpga\.P_clock_time\.\/\/\/\@0\$display_minutes\[3\]
*569 my_design\.DEBUG_SIGS_GTKWAVE\.\/fpga_pins\.\/fpga\.P_clock_time\.\/\/\/\@0\$display_seconds\[0\]
*570 my_design\.DEBUG_SIGS_GTKWAVE\.\/fpga_pins\.\/fpga\.P_clock_time\.\/\/\/\@0\$display_seconds\[1\]
*571 my_design\.DEBUG_SIGS_GTKWAVE\.\/fpga_pins\.\/fpga\.P_clock_time\.\/\/\/\@0\$display_seconds\[2\]
*572 my_design\.DEBUG_SIGS_GTKWAVE\.\/fpga_pins\.\/fpga\.P_clock_time\.\/\/\/\@0\$display_seconds\[3\]
*573 my_design\.DEBUG_SIGS_GTKWAVE\.\/fpga_pins\.\/fpga\.P_clock_time\.\/\/\/\@0\$display_switch
*574 my_design\.DEBUG_SIGS_GTKWAVE\.\/fpga_pins\.\/fpga\.P_clock_time\.\/\/\/\@0\$four_display\[0\]
*575 my_design\.DEBUG_SIGS_GTKWAVE\.\/fpga_pins\.\/fpga\.P_clock_time\.\/\/\/\@0\$four_display\[1\]
*576 my_design\.DEBUG_SIGS_GTKWAVE\.\/fpga_pins\.\/fpga\.P_clock_time\.\/\/\/\@0\$four_display\[2\]
*577 my_design\.DEBUG_SIGS_GTKWAVE\.\/fpga_pins\.\/fpga\.P_clock_time\.\/\/\/\@0\$four_display\[3\]
*578 my_design\.DEBUG_SIGS_GTKWAVE\.\/fpga_pins\.\/fpga\.P_clock_time\.\/\/\/\@0\$frequency\[11\]
*579 my_design\.DEBUG_SIGS_GTKWAVE\.\/fpga_pins\.\/fpga\.P_clock_time\.\/\/\/\@0\$frequency\[13\]
*580 my_design\.DEBUG_SIGS_GTKWAVE\.\/fpga_pins\.\/fpga\.P_clock_time\.\/\/\/\@0\$frequency\[14\]
*581 my_design\.DEBUG_SIGS_GTKWAVE\.\/fpga_pins\.\/fpga\.P_clock_time\.\/\/\/\@0\$frequency\[15\]
*582 my_design\.DEBUG_SIGS_GTKWAVE\.\/fpga_pins\.\/fpga\.P_clock_time\.\/\/\/\@0\$frequency\[16\]
*583 my_design\.DEBUG_SIGS_GTKWAVE\.\/fpga_pins\.\/fpga\.P_clock_time\.\/\/\/\@0\$frequency\[17\]
*584 my_design\.DEBUG_SIGS_GTKWAVE\.\/fpga_pins\.\/fpga\.P_clock_time\.\/\/\/\@0\$frequency\[18\]
*585 my_design\.DEBUG_SIGS_GTKWAVE\.\/fpga_pins\.\/fpga\.P_clock_time\.\/\/\/\@0\$frequency\[19\]
*586 my_design\.DEBUG_SIGS_GTKWAVE\.\/fpga_pins\.\/fpga\.P_clock_time\.\/\/\/\@0\$frequency\[20\]
*587 my_design\.DEBUG_SIGS_GTKWAVE\.\/fpga_pins\.\/fpga\.P_clock_time\.\/\/\/\@0\$frequency\[21\]
*588 my_design\.DEBUG_SIGS_GTKWAVE\.\/fpga_pins\.\/fpga\.P_clock_time\.\/\/\/\@0\$frequency\[24\]
*589 my_design\.DEBUG_SIGS_GTKWAVE\.\/fpga_pins\.\/fpga\.P_clock_time\.\/\/\/\@0\$frequency\[5\]
*590 my_design\.DEBUG_SIGS_GTKWAVE\.\/fpga_pins\.\/fpga\.P_clock_time\.\/\/\/\@0\$frequency\[6\]
*591 my_design\.DEBUG_SIGS_GTKWAVE\.\/fpga_pins\.\/fpga\.P_clock_time\.\/\/\/\@0\$frequency\[7\]
*592 my_design\.DEBUG_SIGS_GTKWAVE\.\/fpga_pins\.\/fpga\.P_clock_time\.\/\/\/\@0\$frequency\[8\]
*593 my_design\.DEBUG_SIGS_GTKWAVE\.\/fpga_pins\.\/fpga\.P_clock_time\.\/\/\/\@0\$frequency\[9\]
*594 my_design\.DEBUG_SIGS_GTKWAVE\.\/fpga_pins\.\/fpga\.P_clock_time\.\/\/\/\@0\$hour_ones_digit\[0\]
*595 my_design\.DEBUG_SIGS_GTKWAVE\.\/fpga_pins\.\/fpga\.P_clock_time\.\/\/\/\@0\$hour_ones_digit\[1\]
*596 my_design\.DEBUG_SIGS_GTKWAVE\.\/fpga_pins\.\/fpga\.P_clock_time\.\/\/\/\@0\$hour_ones_digit\[2\]
*597 my_design\.DEBUG_SIGS_GTKWAVE\.\/fpga_pins\.\/fpga\.P_clock_time\.\/\/\/\@0\$hour_ones_digit\[3\]
*598 my_design\.DEBUG_SIGS_GTKWAVE\.\/fpga_pins\.\/fpga\.P_clock_time\.\/\/\/\@0\$hour_pulse
*599 my_design\.DEBUG_SIGS_GTKWAVE\.\/fpga_pins\.\/fpga\.P_clock_time\.\/\/\/\@0\$hour_tens_digit\[0\]
*600 my_design\.DEBUG_SIGS_GTKWAVE\.\/fpga_pins\.\/fpga\.P_clock_time\.\/\/\/\@0\$hour_tens_digit\[1\]
*601 my_design\.DEBUG_SIGS_GTKWAVE\.\/fpga_pins\.\/fpga\.P_clock_time\.\/\/\/\@0\$hour_tens_digit\[2\]
*602 my_design\.DEBUG_SIGS_GTKWAVE\.\/fpga_pins\.\/fpga\.P_clock_time\.\/\/\/\@0\$hour_tens_digit\[3\]
*603 my_design\.DEBUG_SIGS_GTKWAVE\.\/fpga_pins\.\/fpga\.P_clock_time\.\/\/\/\@0\$min_ones_digit\[0\]
*604 my_design\.DEBUG_SIGS_GTKWAVE\.\/fpga_pins\.\/fpga\.P_clock_time\.\/\/\/\@0\$min_ones_digit\[1\]
*605 my_design\.DEBUG_SIGS_GTKWAVE\.\/fpga_pins\.\/fpga\.P_clock_time\.\/\/\/\@0\$min_ones_digit\[2\]
*606 my_design\.DEBUG_SIGS_GTKWAVE\.\/fpga_pins\.\/fpga\.P_clock_time\.\/\/\/\@0\$min_ones_digit\[3\]
*607 my_design\.DEBUG_SIGS_GTKWAVE\.\/fpga_pins\.\/fpga\.P_clock_time\.\/\/\/\@0\$min_pulse
*608 my_design\.DEBUG_SIGS_GTKWAVE\.\/fpga_pins\.\/fpga\.P_clock_time\.\/\/\/\@0\$min_tens_digit\[0\]
*609 my_design\.DEBUG_SIGS_GTKWAVE\.\/fpga_pins\.\/fpga\.P_clock_time\.\/\/\/\@0\$min_tens_digit\[1\]
*610 my_design\.DEBUG_SIGS_GTKWAVE\.\/fpga_pins\.\/fpga\.P_clock_time\.\/\/\/\@0\$min_tens_digit\[2\]
*611 my_design\.DEBUG_SIGS_GTKWAVE\.\/fpga_pins\.\/fpga\.P_clock_time\.\/\/\/\@0\$min_tens_digit\[3\]
*612 my_design\.DEBUG_SIGS_GTKWAVE\.\/fpga_pins\.\/fpga\.P_clock_time\.\/\/\/\@0\$reset
*613 my_design\.DEBUG_SIGS_GTKWAVE\.\/fpga_pins\.\/fpga\.P_clock_time\.\/\/\/\@0\$sec_ones_digit\[0\]
*614 my_design\.DEBUG_SIGS_GTKWAVE\.\/fpga_pins\.\/fpga\.P_clock_time\.\/\/\/\@0\$sec_ones_digit\[1\]
*615 my_design\.DEBUG_SIGS_GTKWAVE\.\/fpga_pins\.\/fpga\.P_clock_time\.\/\/\/\@0\$sec_ones_digit\[2\]
*616 my_design\.DEBUG_SIGS_GTKWAVE\.\/fpga_pins\.\/fpga\.P_clock_time\.\/\/\/\@0\$sec_ones_digit\[3\]
*617 my_design\.DEBUG_SIGS_GTKWAVE\.\/fpga_pins\.\/fpga\.P_clock_time\.\/\/\/\@0\$sec_pulse
*618 my_design\.DEBUG_SIGS_GTKWAVE\.\/fpga_pins\.\/fpga\.P_clock_time\.\/\/\/\@0\$sec_tens_digit\[0\]
*619 my_design\.DEBUG_SIGS_GTKWAVE\.\/fpga_pins\.\/fpga\.P_clock_time\.\/\/\/\@0\$sec_tens_digit\[1\]
*620 my_design\.DEBUG_SIGS_GTKWAVE\.\/fpga_pins\.\/fpga\.P_clock_time\.\/\/\/\@0\$sec_tens_digit\[2\]
*621 my_design\.DEBUG_SIGS_GTKWAVE\.\/fpga_pins\.\/fpga\.P_clock_time\.\/\/\/\@0\$sec_tens_digit\[3\]
*622 my_design\.DEBUG_SIGS_GTKWAVE\.\/fpga_pins\.\/fpga\.P_clock_time\.\/\/\/\@0\$showbits\[0\]
*623 my_design\.DEBUG_SIGS_GTKWAVE\.\/fpga_pins\.\/fpga\.P_clock_time\.\/\/\/\@0\$showbits\[1\]
*624 my_design\.DEBUG_SIGS_GTKWAVE\.\/fpga_pins\.\/fpga\.P_clock_time\.\/\/\/\@0\$showbits\[2\]
*625 my_design\.DEBUG_SIGS_GTKWAVE\.\/fpga_pins\.\/fpga\.P_clock_time\.\/\/\/\@0\$showbits\[3\]
*626 my_design\.DEBUG_SIGS_GTKWAVE\.\/fpga_pins\.\/fpga\.P_clock_time\.\/\/\/\@0\$showbits\[4\]
*627 my_design\.DEBUG_SIGS_GTKWAVE\.\/fpga_pins\.\/fpga\.P_clock_time\.\/\/\/\@0\$showbits\[5\]
*628 my_design\.DEBUG_SIGS_GTKWAVE\.\/fpga_pins\.\/fpga\.P_clock_time\.\/\/\/\@0\$showbits\[6\]
*629 my_design\.DEBUG_SIGS_GTKWAVE\.\/switch\[0\]\.\/\@0\$viz_switch
*630 my_design\.DEBUG_SIGS_GTKWAVE\.\/switch\[1\]\.\/\@0\$viz_switch
*631 my_design\.DEBUG_SIGS_GTKWAVE\.\/switch\[2\]\.\/\@0\$viz_switch
*632 my_design\.DEBUG_SIGS_GTKWAVE\.\/switch\[3\]\.\/\@0\$viz_switch
*633 my_design\.DEBUG_SIGS_GTKWAVE\.\/switch\[4\]\.\/\@0\$viz_switch
*634 my_design\.DEBUG_SIGS_GTKWAVE\.\/switch\[5\]\.\/\@0\$viz_switch
*635 my_design\.DEBUG_SIGS_GTKWAVE\.\/switch\[6\]\.\/\@0\$viz_switch
*636 my_design\.DEBUG_SIGS_GTKWAVE\.\/switch\[7\]\.\/\@0\$viz_switch
*637 my_design\.FpgaPins_Fpga_CLOCK_TIME_cycounter_a1\[0\]
*638 my_design\.FpgaPins_Fpga_CLOCK_TIME_cycounter_a1\[10\]
*639 my_design\.FpgaPins_Fpga_CLOCK_TIME_cycounter_a1\[11\]
*640 my_design\.FpgaPins_Fpga_CLOCK_TIME_cycounter_a1\[12\]
*641 my_design\.FpgaPins_Fpga_CLOCK_TIME_cycounter_a1\[13\]
*642 my_design\.FpgaPins_Fpga_CLOCK_TIME_cycounter_a1\[14\]
*643 my_design\.FpgaPins_Fpga_CLOCK_TIME_cycounter_a1\[15\]
*644 my_design\.FpgaPins_Fpga_CLOCK_TIME_cycounter_a1\[16\]
*645 my_design\.FpgaPins_Fpga_CLOCK_TIME_cycounter_a1\[17\]
*646 my_design\.FpgaPins_Fpga_CLOCK_TIME_cycounter_a1\[18\]
*647 my_design\.FpgaPins_Fpga_CLOCK_TIME_cycounter_a1\[19\]
*648 my_design\.FpgaPins_Fpga_CLOCK_TIME_cycounter_a1\[1\]
*649 my_design\.FpgaPins_Fpga_CLOCK_TIME_cycounter_a1\[20\]
*650 my_design\.FpgaPins_Fpga_CLOCK_TIME_cycounter_a1\[21\]
*651 my_design\.FpgaPins_Fpga_CLOCK_TIME_cycounter_a1\[22\]
*652 my_design\.FpgaPins_Fpga_CLOCK_TIME_cycounter_a1\[23\]
*653 my_design\.FpgaPins_Fpga_CLOCK_TIME_cycounter_a1\[24\]
*654 my_design\.FpgaPins_Fpga_CLOCK_TIME_cycounter_a1\[2\]
*655 my_design\.FpgaPins_Fpga_CLOCK_TIME_cycounter_a1\[3\]
*656 my_design\.FpgaPins_Fpga_CLOCK_TIME_cycounter_a1\[4\]
*657 my_design\.FpgaPins_Fpga_CLOCK_TIME_cycounter_a1\[5\]
*658 my_design\.FpgaPins_Fpga_CLOCK_TIME_cycounter_a1\[6\]
*659 my_design\.FpgaPins_Fpga_CLOCK_TIME_cycounter_a1\[7\]
*660 my_design\.FpgaPins_Fpga_CLOCK_TIME_cycounter_a1\[8\]
*661 my_design\.FpgaPins_Fpga_CLOCK_TIME_cycounter_a1\[9\]
*662 my_design\.FpgaPins_Fpga_CLOCK_TIME_hour_ones_digit_a1\[0\]
*663 my_design\.FpgaPins_Fpga_CLOCK_TIME_hour_ones_digit_a1\[1\]
*664 my_design\.FpgaPins_Fpga_CLOCK_TIME_hour_ones_digit_a1\[2\]
*665 my_design\.FpgaPins_Fpga_CLOCK_TIME_hour_ones_digit_a1\[3\]
*666 my_design\.FpgaPins_Fpga_CLOCK_TIME_hour_tens_digit_a1\[0\]
*667 my_design\.FpgaPins_Fpga_CLOCK_TIME_hour_tens_digit_a1\[1\]
*668 my_design\.FpgaPins_Fpga_CLOCK_TIME_hour_tens_digit_a1\[2\]
*669 my_design\.FpgaPins_Fpga_CLOCK_TIME_hour_tens_digit_a1\[3\]
*670 my_design\.FpgaPins_Fpga_CLOCK_TIME_min_ones_digit_a1\[0\]
*671 my_design\.FpgaPins_Fpga_CLOCK_TIME_min_ones_digit_a1\[1\]
*672 my_design\.FpgaPins_Fpga_CLOCK_TIME_min_ones_digit_a1\[2\]
*673 my_design\.FpgaPins_Fpga_CLOCK_TIME_min_ones_digit_a1\[3\]
*674 my_design\.FpgaPins_Fpga_CLOCK_TIME_min_tens_digit_a1\[0\]
*675 my_design\.FpgaPins_Fpga_CLOCK_TIME_min_tens_digit_a1\[1\]
*676 my_design\.FpgaPins_Fpga_CLOCK_TIME_min_tens_digit_a1\[2\]
*677 my_design\.FpgaPins_Fpga_CLOCK_TIME_min_tens_digit_a1\[3\]
*678 my_design\.FpgaPins_Fpga_CLOCK_TIME_sec_ones_digit_a1\[0\]
*679 my_design\.FpgaPins_Fpga_CLOCK_TIME_sec_ones_digit_a1\[1\]
*680 my_design\.FpgaPins_Fpga_CLOCK_TIME_sec_ones_digit_a1\[2\]
*681 my_design\.FpgaPins_Fpga_CLOCK_TIME_sec_ones_digit_a1\[3\]
*682 my_design\.FpgaPins_Fpga_CLOCK_TIME_sec_tens_digit_a1\[0\]
*683 my_design\.FpgaPins_Fpga_CLOCK_TIME_sec_tens_digit_a1\[1\]
*684 my_design\.FpgaPins_Fpga_CLOCK_TIME_sec_tens_digit_a1\[2\]
*685 my_design\.FpgaPins_Fpga_CLOCK_TIME_sec_tens_digit_a1\[3\]
*686 net1
*687 net10
*688 net100
*689 net101
*690 net102
*691 net103
*692 net104
*693 net105
*694 net106
*695 net107
*696 net108
*697 net109
*698 net11
*699 net110
*700 net111
*701 net112
*702 net113
*703 net114
*704 net115
*705 net116
*706 net117
*707 net118
*708 net119
*709 net12
*710 net120
*711 net121
*712 net122
*713 net123
*714 net124
*715 net125
*716 net126
*717 net127
*718 net128
*719 net129
*720 net13
*721 net130
*722 net131
*723 net132
*724 net133
*725 net134
*726 net135
*727 net136
*728 net14
*729 net15
*730 net16
*731 net17
*732 net18
*733 net19
*734 net2
*735 net20
*736 net21
*737 net22
*738 net23
*739 net3
*740 net36
*741 net37
*742 net38
*743 net39
*744 net4
*745 net40
*746 net41
*747 net42
*748 net43
*749 net44
*750 net45
*751 net46
*752 net47
*753 net48
*754 net49
*755 net5
*756 net50
*757 net51
*758 net52
*759 net53
*760 net54
*761 net55
*762 net56
*763 net57
*764 net58
*765 net59
*766 net6
*767 net60
*768 net61
*769 net62
*770 net63
*771 net64
*772 net65
*773 net66
*774 net67
*775 net68
*776 net69
*777 net7
*778 net70
*779 net71
*780 net72
*781 net73
*782 net74
*783 net75
*784 net76
*785 net77
*786 net78
*787 net79
*788 net8
*789 net80
*790 net81
*791 net82
*792 net83
*793 net84
*794 net85
*795 net86
*796 net87
*797 net88
*798 net89
*799 net9
*800 net90
*801 net91
*802 net92
*803 net93
*804 net94
*805 net95
*806 net96
*807 net97
*808 net98
*809 net99
*810 FILLER_0_0_109
*811 FILLER_0_0_113
*812 FILLER_0_0_125
*813 FILLER_0_0_137
*814 FILLER_0_0_141
*815 FILLER_0_0_15
*816 FILLER_0_0_153
*817 FILLER_0_0_165
*818 FILLER_0_0_169
*819 FILLER_0_0_181
*820 FILLER_0_0_193
*821 FILLER_0_0_197
*822 FILLER_0_0_209
*823 FILLER_0_0_221
*824 FILLER_0_0_225
*825 FILLER_0_0_237
*826 FILLER_0_0_249
*827 FILLER_0_0_253
*828 FILLER_0_0_265
*829 FILLER_0_0_27
*830 FILLER_0_0_277
*831 FILLER_0_0_281
*832 FILLER_0_0_29
*833 FILLER_0_0_293
*834 FILLER_0_0_3
*835 FILLER_0_0_305
*836 FILLER_0_0_309
*837 FILLER_0_0_321
*838 FILLER_0_0_333
*839 FILLER_0_0_41
*840 FILLER_0_0_53
*841 FILLER_0_0_57
*842 FILLER_0_0_69
*843 FILLER_0_0_81
*844 FILLER_0_0_85
*845 FILLER_0_0_97
*846 FILLER_0_10_109
*847 FILLER_0_10_121
*848 FILLER_0_10_133
*849 FILLER_0_10_139
*850 FILLER_0_10_141
*851 FILLER_0_10_15
*852 FILLER_0_10_153
*853 FILLER_0_10_165
*854 FILLER_0_10_213
*855 FILLER_0_10_225
*856 FILLER_0_10_237
*857 FILLER_0_10_249
*858 FILLER_0_10_253
*859 FILLER_0_10_265
*860 FILLER_0_10_27
*861 FILLER_0_10_277
*862 FILLER_0_10_289
*863 FILLER_0_10_29
*864 FILLER_0_10_3
*865 FILLER_0_10_301
*866 FILLER_0_10_307
*867 FILLER_0_10_309
*868 FILLER_0_10_323
*869 FILLER_0_10_41
*870 FILLER_0_10_53
*871 FILLER_0_10_65
*872 FILLER_0_10_77
*873 FILLER_0_10_83
*874 FILLER_0_10_85
*875 FILLER_0_10_97
*876 FILLER_0_11_105
*877 FILLER_0_11_111
*878 FILLER_0_11_113
*879 FILLER_0_11_125
*880 FILLER_0_11_146
*881 FILLER_0_11_15
*882 FILLER_0_11_158
*883 FILLER_0_11_164
*884 FILLER_0_11_169
*885 FILLER_0_11_214
*886 FILLER_0_11_222
*887 FILLER_0_11_241
*888 FILLER_0_11_245
*889 FILLER_0_11_257
*890 FILLER_0_11_269
*891 FILLER_0_11_27
*892 FILLER_0_11_277
*893 FILLER_0_11_281
*894 FILLER_0_11_293
*895 FILLER_0_11_299
*896 FILLER_0_11_3
*897 FILLER_0_11_39
*898 FILLER_0_11_51
*899 FILLER_0_11_55
*900 FILLER_0_11_57
*901 FILLER_0_11_69
*902 FILLER_0_11_81
*903 FILLER_0_11_93
*904 FILLER_0_12_111
*905 FILLER_0_12_123
*906 FILLER_0_12_15
*907 FILLER_0_12_157
*908 FILLER_0_12_195
*909 FILLER_0_12_209
*910 FILLER_0_12_250
*911 FILLER_0_12_253
*912 FILLER_0_12_265
*913 FILLER_0_12_27
*914 FILLER_0_12_284
*915 FILLER_0_12_29
*916 FILLER_0_12_296
*917 FILLER_0_12_3
*918 FILLER_0_12_302
*919 FILLER_0_12_333
*920 FILLER_0_12_41
*921 FILLER_0_12_53
*922 FILLER_0_12_65
*923 FILLER_0_12_77
*924 FILLER_0_12_83
*925 FILLER_0_12_85
*926 FILLER_0_12_99
*927 FILLER_0_13_116
*928 FILLER_0_13_120
*929 FILLER_0_13_15
*930 FILLER_0_13_158
*931 FILLER_0_13_166
*932 FILLER_0_13_169
*933 FILLER_0_13_187
*934 FILLER_0_13_196
*935 FILLER_0_13_208
*936 FILLER_0_13_216
*937 FILLER_0_13_232
*938 FILLER_0_13_249
*939 FILLER_0_13_261
*940 FILLER_0_13_27
*941 FILLER_0_13_295
*942 FILLER_0_13_3
*943 FILLER_0_13_303
*944 FILLER_0_13_333
*945 FILLER_0_13_39
*946 FILLER_0_13_51
*947 FILLER_0_13_55
*948 FILLER_0_13_57
*949 FILLER_0_13_69
*950 FILLER_0_13_77
*951 FILLER_0_13_84
*952 FILLER_0_14_120
*953 FILLER_0_14_138
*954 FILLER_0_14_148
*955 FILLER_0_14_15
*956 FILLER_0_14_160
*957 FILLER_0_14_172
*958 FILLER_0_14_184
*959 FILLER_0_14_197
*960 FILLER_0_14_209
*961 FILLER_0_14_221
*962 FILLER_0_14_225
*963 FILLER_0_14_233
*964 FILLER_0_14_248
*965 FILLER_0_14_253
*966 FILLER_0_14_27
*967 FILLER_0_14_29
*968 FILLER_0_14_296
*969 FILLER_0_14_3
*970 FILLER_0_14_309
*971 FILLER_0_14_319
*972 FILLER_0_14_334
*973 FILLER_0_14_41
*974 FILLER_0_14_53
*975 FILLER_0_14_65
*976 FILLER_0_14_73
*977 FILLER_0_15_113
*978 FILLER_0_15_125
*979 FILLER_0_15_133
*980 FILLER_0_15_140
*981 FILLER_0_15_15
*982 FILLER_0_15_152
*983 FILLER_0_15_178
*984 FILLER_0_15_186
*985 FILLER_0_15_199
*986 FILLER_0_15_211
*987 FILLER_0_15_221
*988 FILLER_0_15_225
*989 FILLER_0_15_238
*990 FILLER_0_15_248
*991 FILLER_0_15_260
*992 FILLER_0_15_27
*993 FILLER_0_15_293
*994 FILLER_0_15_3
*995 FILLER_0_15_303
*996 FILLER_0_15_315
*997 FILLER_0_15_327
*998 FILLER_0_15_39
*999 FILLER_0_15_51
*1000 FILLER_0_15_55
*1001 FILLER_0_15_57
*1002 FILLER_0_15_69
*1003 FILLER_0_15_81
*1004 FILLER_0_16_110
*1005 FILLER_0_16_122
*1006 FILLER_0_16_138
*1007 FILLER_0_16_141
*1008 FILLER_0_16_15
*1009 FILLER_0_16_153
*1010 FILLER_0_16_195
*1011 FILLER_0_16_227
*1012 FILLER_0_16_253
*1013 FILLER_0_16_265
*1014 FILLER_0_16_27
*1015 FILLER_0_16_277
*1016 FILLER_0_16_281
*1017 FILLER_0_16_29
*1018 FILLER_0_16_299
*1019 FILLER_0_16_3
*1020 FILLER_0_16_330
*1021 FILLER_0_16_334
*1022 FILLER_0_16_41
*1023 FILLER_0_16_49
*1024 FILLER_0_16_53
*1025 FILLER_0_16_62
*1026 FILLER_0_16_74
*1027 FILLER_0_16_82
*1028 FILLER_0_16_85
*1029 FILLER_0_16_93
*1030 FILLER_0_17_102
*1031 FILLER_0_17_110
*1032 FILLER_0_17_116
*1033 FILLER_0_17_158
*1034 FILLER_0_17_169
*1035 FILLER_0_17_178
*1036 FILLER_0_17_198
*1037 FILLER_0_17_225
*1038 FILLER_0_17_231
*1039 FILLER_0_17_259
*1040 FILLER_0_17_271
*1041 FILLER_0_17_279
*1042 FILLER_0_17_28
*1043 FILLER_0_17_281
*1044 FILLER_0_17_3
*1045 FILLER_0_17_312
*1046 FILLER_0_17_331
*1047 FILLER_0_17_38
*1048 FILLER_0_17_57
*1049 FILLER_0_17_7
*1050 FILLER_0_17_74
*1051 FILLER_0_17_86
*1052 FILLER_0_17_94
*1053 FILLER_0_18_11
*1054 FILLER_0_18_119
*1055 FILLER_0_18_147
*1056 FILLER_0_18_164
*1057 FILLER_0_18_181
*1058 FILLER_0_18_189
*1059 FILLER_0_18_195
*1060 FILLER_0_18_197
*1061 FILLER_0_18_205
*1062 FILLER_0_18_214
*1063 FILLER_0_18_223
*1064 FILLER_0_18_250
*1065 FILLER_0_18_258
*1066 FILLER_0_18_270
*1067 FILLER_0_18_278
*1068 FILLER_0_18_3
*1069 FILLER_0_18_304
*1070 FILLER_0_18_325
*1071 FILLER_0_18_53
*1072 FILLER_0_18_80
*1073 FILLER_0_19_107
*1074 FILLER_0_19_11
*1075 FILLER_0_19_111
*1076 FILLER_0_19_116
*1077 FILLER_0_19_140
*1078 FILLER_0_19_146
*1079 FILLER_0_19_153
*1080 FILLER_0_19_161
*1081 FILLER_0_19_165
*1082 FILLER_0_19_173
*1083 FILLER_0_19_187
*1084 FILLER_0_19_199
*1085 FILLER_0_19_211
*1086 FILLER_0_19_225
*1087 FILLER_0_19_265
*1088 FILLER_0_19_289
*1089 FILLER_0_19_3
*1090 FILLER_0_19_300
*1091 FILLER_0_19_308
*1092 FILLER_0_19_315
*1093 FILLER_0_19_325
*1094 FILLER_0_19_333
*1095 FILLER_0_19_39
*1096 FILLER_0_19_49
*1097 FILLER_0_1_105
*1098 FILLER_0_1_111
*1099 FILLER_0_1_113
*1100 FILLER_0_1_125
*1101 FILLER_0_1_137
*1102 FILLER_0_1_149
*1103 FILLER_0_1_15
*1104 FILLER_0_1_161