*SPEF "ieee 1481-1999"
*DESIGN "tt_ctrl"
*DATE "11:11:11 Fri 11 11, 1111"
*VENDOR "OpenRCX"
*PROGRAM "Parallel Extraction"
*VERSION "1.0"
*DESIGN_FLOW "NAME_SCOPE LOCAL" "PIN_CAP NONE"
*DIVIDER /
*DELIMITER :
*BUS_DELIMITER []
*T_UNIT 1 NS
*C_UNIT 1 PF
*R_UNIT 1 OHM
*L_UNIT 1 HENRY

*NAME_MAP
*3 ctrl_ena
*4 ctrl_sel_inc
*5 ctrl_sel_rst_n
*6 k_one
*7 k_zero
*8 pad_ui_in[0]
*9 pad_ui_in[1]
*10 pad_ui_in[2]
*11 pad_ui_in[3]
*12 pad_ui_in[4]
*13 pad_ui_in[5]
*14 pad_ui_in[6]
*15 pad_ui_in[7]
*16 pad_ui_in[8]
*17 pad_ui_in[9]
*18 pad_uio_in[0]
*19 pad_uio_in[1]
*20 pad_uio_in[2]
*21 pad_uio_in[3]
*22 pad_uio_in[4]
*23 pad_uio_in[5]
*24 pad_uio_in[6]
*25 pad_uio_in[7]
*26 uio_oe_obuf_I\[0\]\.z
*27 uio_oe_obuf_I\[1\]\.z
*28 uio_oe_obuf_I\[2\]\.z
*29 uio_oe_obuf_I\[3\]\.z
*30 uio_oe_obuf_I\[4\]\.z
*31 uio_oe_obuf_I\[5\]\.z
*32 uio_oe_obuf_I\[6\]\.z
*33 uio_oe_obuf_I\[7\]\.z
*34 uio_out_obuf_I\[0\]\.z
*35 uio_out_obuf_I\[1\]\.z
*36 uio_out_obuf_I\[2\]\.z
*37 uio_out_obuf_I\[3\]\.z
*38 uio_out_obuf_I\[4\]\.z
*39 uio_out_obuf_I\[5\]\.z
*40 uio_out_obuf_I\[6\]\.z
*41 uio_out_obuf_I\[7\]\.z
*42 uo_out_obuf_I\[0\]\.z
*43 uo_out_obuf_I\[1\]\.z
*44 uo_out_obuf_I\[2\]\.z
*45 uo_out_obuf_I\[3\]\.z
*46 uo_out_obuf_I\[4\]\.z
*47 uo_out_obuf_I\[5\]\.z
*48 uo_out_obuf_I\[6\]\.z
*49 uo_out_obuf_I\[7\]\.z
*50 genblk2\[0\]\.tie_guard_I\[0\]\.lo
*51 genblk2\[0\]\.sel_cnt_buf_I\[8\]\.z
*52 genblk2\[0\]\.pad_ui_in_buf_I\[0\]\.z
*53 genblk2\[0\]\.pad_ui_in_buf_I\[1\]\.z
*54 genblk2\[0\]\.pad_ui_in_buf_I\[2\]\.z
*55 genblk2\[0\]\.pad_ui_in_buf_I\[3\]\.z
*56 genblk2\[0\]\.pad_ui_in_buf_I\[4\]\.z
*57 genblk2\[0\]\.pad_ui_in_buf_I\[5\]\.z
*58 genblk2\[0\]\.pad_ui_in_buf_I\[6\]\.z
*59 genblk2\[0\]\.pad_ui_in_buf_I\[7\]\.z
*60 genblk2\[0\]\.pad_ui_in_buf_I\[8\]\.z
*61 genblk2\[0\]\.ctrl_ena_buf_I\.z
*62 genblk2\[0\]\.pad_ui_in_buf_I\[9\]\.z
*63 genblk2\[0\]\.pad_uio_in_buf_I\[0\]\.z
*64 genblk2\[0\]\.pad_uio_in_buf_I\[1\]\.z
*65 genblk2\[0\]\.pad_uio_in_buf_I\[2\]\.z
*66 genblk2\[0\]\.pad_uio_in_buf_I\[3\]\.z
*67 genblk2\[0\]\.pad_uio_in_buf_I\[4\]\.z
*68 genblk2\[0\]\.pad_uio_in_buf_I\[5\]\.z
*69 genblk2\[0\]\.pad_uio_in_buf_I\[6\]\.z
*70 genblk2\[0\]\.pad_uio_in_buf_I\[7\]\.z
*71 genblk2\[0\]\.tie_guard_I\[1\]\.lo
*72 genblk2\[0\]\.sel_cnt_buf_I\[0\]\.z
*73 genblk2\[0\]\.sel_cnt_buf_I\[1\]\.z
*74 genblk2\[0\]\.sel_cnt_buf_I\[2\]\.z
*75 genblk2\[0\]\.sel_cnt_buf_I\[3\]\.z
*76 genblk2\[0\]\.sel_cnt_buf_I\[4\]\.z
*77 genblk2\[0\]\.sel_cnt_buf_I\[5\]\.z
*78 genblk2\[0\]\.sel_cnt_buf_I\[6\]\.z
*79 genblk2\[0\]\.sel_cnt_buf_I\[7\]\.z
*80 spine_bot_ow[0]
*81 spine_bot_ow[10]
*82 spine_bot_ow[11]
*83 spine_bot_ow[12]
*84 spine_bot_ow[13]
*85 spine_bot_ow[14]
*86 spine_bot_ow[15]
*87 spine_bot_ow[16]
*88 spine_bot_ow[17]
*89 spine_bot_ow[18]
*90 spine_bot_ow[19]
*91 spine_bot_ow[1]
*92 spine_bot_ow[20]
*93 spine_bot_ow[21]
*94 spine_bot_ow[22]
*95 spine_bot_ow[23]
*96 spine_bot_ow[24]
*97 spine_bot_ow[25]
*98 spine_bot_ow[2]
*99 spine_bot_ow[3]
*100 spine_bot_ow[4]
*101 spine_bot_ow[5]
*102 spine_bot_ow[6]
*103 spine_bot_ow[7]
*104 spine_bot_ow[8]
*105 spine_bot_ow[9]
*106 genblk2\[1\]\.tie_guard_I\[0\]\.lo
*107 genblk2\[1\]\.sel_cnt_buf_I\[8\]\.z
*108 genblk2\[1\]\.pad_ui_in_buf_I\[0\]\.z
*109 genblk2\[1\]\.pad_ui_in_buf_I\[1\]\.z
*110 genblk2\[1\]\.pad_ui_in_buf_I\[2\]\.z
*111 genblk2\[1\]\.pad_ui_in_buf_I\[3\]\.z
*112 genblk2\[1\]\.pad_ui_in_buf_I\[4\]\.z
*113 genblk2\[1\]\.pad_ui_in_buf_I\[5\]\.z
*114 genblk2\[1\]\.pad_ui_in_buf_I\[6\]\.z
*115 genblk2\[1\]\.pad_ui_in_buf_I\[7\]\.z
*116 genblk2\[1\]\.pad_ui_in_buf_I\[8\]\.z
*117 genblk2\[1\]\.ctrl_ena_buf_I\.z
*118 genblk2\[1\]\.pad_ui_in_buf_I\[9\]\.z
*119 genblk2\[1\]\.pad_uio_in_buf_I\[0\]\.z
*120 genblk2\[1\]\.pad_uio_in_buf_I\[1\]\.z
*121 genblk2\[1\]\.pad_uio_in_buf_I\[2\]\.z
*122 genblk2\[1\]\.pad_uio_in_buf_I\[3\]\.z
*123 genblk2\[1\]\.pad_uio_in_buf_I\[4\]\.z
*124 genblk2\[1\]\.pad_uio_in_buf_I\[5\]\.z
*125 genblk2\[1\]\.pad_uio_in_buf_I\[6\]\.z
*126 genblk2\[1\]\.pad_uio_in_buf_I\[7\]\.z
*127 genblk2\[1\]\.tie_guard_I\[1\]\.lo
*128 genblk2\[1\]\.sel_cnt_buf_I\[0\]\.z
*129 genblk2\[1\]\.sel_cnt_buf_I\[1\]\.z
*130 genblk2\[1\]\.sel_cnt_buf_I\[2\]\.z
*131 genblk2\[1\]\.sel_cnt_buf_I\[3\]\.z
*132 genblk2\[1\]\.sel_cnt_buf_I\[4\]\.z
*133 genblk2\[1\]\.sel_cnt_buf_I\[5\]\.z
*134 genblk2\[1\]\.sel_cnt_buf_I\[6\]\.z
*135 genblk2\[1\]\.sel_cnt_buf_I\[7\]\.z
*136 spine_top_ow[0]
*137 spine_top_ow[10]
*138 spine_top_ow[11]
*139 spine_top_ow[12]
*140 spine_top_ow[13]
*141 spine_top_ow[14]
*142 spine_top_ow[15]
*143 spine_top_ow[16]
*144 spine_top_ow[17]
*145 spine_top_ow[18]
*146 spine_top_ow[19]
*147 spine_top_ow[1]
*148 spine_top_ow[20]
*149 spine_top_ow[21]
*150 spine_top_ow[22]
*151 spine_top_ow[23]
*152 spine_top_ow[24]
*153 spine_top_ow[25]
*154 spine_top_ow[2]
*155 spine_top_ow[3]
*156 spine_top_ow[4]
*157 spine_top_ow[5]
*158 spine_top_ow[6]
*159 spine_top_ow[7]
*160 spine_top_ow[8]
*161 spine_top_ow[9]
*162 ctrl_ibuf_I\[0\]\.z
*163 ctrl_ibuf_I\[1\]\.z
*164 ctrl_ibuf_I\[2\]\.z
*165 genblk1\[0\]\.tbuf_pol_spine_ow_I\.t
*166 genblk1\[0\]\.tbuf_pol_spine_ow_I\.tx
*167 genblk1\[0\]\.tbuf_spine_ow_I\[0\]\.a
*168 genblk1\[0\]\.tie_I\.hi
*169 genblk1\[1\]\.tbuf_pol_spine_ow_I\.t
*170 genblk1\[1\]\.tbuf_pol_spine_ow_I\.tx
*171 genblk1\[1\]\.tbuf_spine_ow_I\[0\]\.a
*172 genblk1\[1\]\.tie_I\.hi
*173 genblk2\[0\]\.ctrl_ena_buf_I\.e
*174 genblk2\[0\]\.ctrl_ena_buf_I\.genblk1\.l
*175 genblk2\[0\]\.pad_ui_in_buf_I\[0\]\.genblk1\.l
*176 genblk2\[0\]\.pad_ui_in_buf_I\[1\]\.genblk1\.l
*177 genblk2\[0\]\.pad_ui_in_buf_I\[2\]\.genblk1\.l
*178 genblk2\[0\]\.pad_ui_in_buf_I\[3\]\.genblk1\.l
*179 genblk2\[0\]\.pad_ui_in_buf_I\[4\]\.genblk1\.l
*180 genblk2\[0\]\.pad_ui_in_buf_I\[5\]\.genblk1\.l
*181 genblk2\[0\]\.pad_ui_in_buf_I\[6\]\.genblk1\.l
*182 genblk2\[0\]\.pad_ui_in_buf_I\[7\]\.genblk1\.l
*183 genblk2\[0\]\.pad_ui_in_buf_I\[8\]\.genblk1\.l
*184 genblk2\[0\]\.pad_ui_in_buf_I\[9\]\.genblk1\.l
*185 genblk2\[0\]\.pad_uio_in_buf_I\[0\]\.genblk1\.l
*186 genblk2\[0\]\.pad_uio_in_buf_I\[1\]\.genblk1\.l
*187 genblk2\[0\]\.pad_uio_in_buf_I\[2\]\.genblk1\.l
*188 genblk2\[0\]\.pad_uio_in_buf_I\[3\]\.genblk1\.l
*189 genblk2\[0\]\.pad_uio_in_buf_I\[4\]\.genblk1\.l
*190 genblk2\[0\]\.pad_uio_in_buf_I\[5\]\.genblk1\.l
*191 genblk2\[0\]\.pad_uio_in_buf_I\[6\]\.genblk1\.l
*192 genblk2\[0\]\.pad_uio_in_buf_I\[7\]\.genblk1\.l
*193 genblk2\[0\]\.sel_cnt_buf_I\[0\]\.a
*194 genblk2\[0\]\.sel_cnt_buf_I\[0\]\.genblk1\.l
*195 genblk2\[0\]\.sel_cnt_buf_I\[1\]\.a
*196 genblk2\[0\]\.sel_cnt_buf_I\[1\]\.genblk1\.l
*197 genblk2\[0\]\.sel_cnt_buf_I\[2\]\.a
*198 genblk2\[0\]\.sel_cnt_buf_I\[2\]\.genblk1\.l
*199 genblk2\[0\]\.sel_cnt_buf_I\[3\]\.a
*200 genblk2\[0\]\.sel_cnt_buf_I\[3\]\.genblk1\.l
*201 genblk2\[0\]\.sel_cnt_buf_I\[4\]\.a
*202 genblk2\[0\]\.sel_cnt_buf_I\[4\]\.genblk1\.l
*203 genblk2\[0\]\.sel_cnt_buf_I\[5\]\.a
*204 genblk2\[0\]\.sel_cnt_buf_I\[5\]\.genblk1\.l
*205 genblk2\[0\]\.sel_cnt_buf_I\[6\]\.a
*206 genblk2\[0\]\.sel_cnt_buf_I\[6\]\.genblk1\.l
*207 genblk2\[0\]\.sel_cnt_buf_I\[7\]\.a
*208 genblk2\[0\]\.sel_cnt_buf_I\[7\]\.genblk1\.l
*209 genblk2\[0\]\.sel_cnt_buf_I\[8\]\.a
*210 genblk2\[0\]\.sel_cnt_buf_I\[8\]\.genblk1\.l
*211 genblk2\[0\]\.tie_guard_I\[0\]\.hi
*212 genblk2\[0\]\.tie_guard_I\[1\]\.hi
*213 genblk2\[1\]\.ctrl_ena_buf_I\.e
*214 genblk2\[1\]\.ctrl_ena_buf_I\.genblk1\.l
*215 genblk2\[1\]\.pad_ui_in_buf_I\[0\]\.genblk1\.l
*216 genblk2\[1\]\.pad_ui_in_buf_I\[1\]\.genblk1\.l
*217 genblk2\[1\]\.pad_ui_in_buf_I\[2\]\.genblk1\.l
*218 genblk2\[1\]\.pad_ui_in_buf_I\[3\]\.genblk1\.l
*219 genblk2\[1\]\.pad_ui_in_buf_I\[4\]\.genblk1\.l
*220 genblk2\[1\]\.pad_ui_in_buf_I\[5\]\.genblk1\.l
*221 genblk2\[1\]\.pad_ui_in_buf_I\[6\]\.genblk1\.l
*222 genblk2\[1\]\.pad_ui_in_buf_I\[7\]\.genblk1\.l
*223 genblk2\[1\]\.pad_ui_in_buf_I\[8\]\.genblk1\.l
*224 genblk2\[1\]\.pad_ui_in_buf_I\[9\]\.genblk1\.l
*225 genblk2\[1\]\.pad_uio_in_buf_I\[0\]\.genblk1\.l
*226 genblk2\[1\]\.pad_uio_in_buf_I\[1\]\.genblk1\.l
*227 genblk2\[1\]\.pad_uio_in_buf_I\[2\]\.genblk1\.l
*228 genblk2\[1\]\.pad_uio_in_buf_I\[3\]\.genblk1\.l
*229 genblk2\[1\]\.pad_uio_in_buf_I\[4\]\.genblk1\.l
*230 genblk2\[1\]\.pad_uio_in_buf_I\[5\]\.genblk1\.l
*231 genblk2\[1\]\.pad_uio_in_buf_I\[6\]\.genblk1\.l
*232 genblk2\[1\]\.pad_uio_in_buf_I\[7\]\.genblk1\.l
*233 genblk2\[1\]\.sel_cnt_buf_I\[0\]\.genblk1\.l
*234 genblk2\[1\]\.sel_cnt_buf_I\[1\]\.genblk1\.l
*235 genblk2\[1\]\.sel_cnt_buf_I\[2\]\.genblk1\.l
*236 genblk2\[1\]\.sel_cnt_buf_I\[3\]\.genblk1\.l
*237 genblk2\[1\]\.sel_cnt_buf_I\[4\]\.genblk1\.l
*238 genblk2\[1\]\.sel_cnt_buf_I\[5\]\.genblk1\.l
*239 genblk2\[1\]\.sel_cnt_buf_I\[6\]\.genblk1\.l
*240 genblk2\[1\]\.sel_cnt_buf_I\[7\]\.genblk1\.l
*241 genblk2\[1\]\.sel_cnt_buf_I\[8\]\.genblk1\.l
*242 genblk2\[1\]\.tie_guard_I\[0\]\.hi
*243 genblk2\[1\]\.tie_guard_I\[1\]\.hi
*244 sel_cnt_gen\[0\]\.cnt_bit_I\.d
*245 sel_cnt_gen\[1\]\.cnt_bit_I\.d
*246 sel_cnt_gen\[2\]\.cnt_bit_I\.d
*247 sel_cnt_gen\[3\]\.cnt_bit_I\.d
*248 sel_cnt_gen\[4\]\.cnt_bit_I\.d
*249 sel_cnt_gen\[5\]\.cnt_bit_I\.d
*250 sel_cnt_gen\[5\]\.cnt_bit_I\.q
*251 sel_cnt_gen\[6\]\.cnt_bit_I\.d
*252 sel_cnt_gen\[7\]\.cnt_bit_I\.d
*253 sel_cnt_gen\[8\]\.cnt_bit_I\.d
*254 sel_cnt_gen\[9\]\.cnt_bit_I\.d
*255 side_sel_buf_I\.z
*256 uio_oe_ibuf_I\[0\]\.z
*257 uio_oe_ibuf_I\[10\]\.z
*258 uio_oe_ibuf_I\[11\]\.z
*259 uio_oe_ibuf_I\[12\]\.z
*260 uio_oe_ibuf_I\[13\]\.z
*261 uio_oe_ibuf_I\[14\]\.z
*262 uio_oe_ibuf_I\[15\]\.z
*263 uio_oe_ibuf_I\[1\]\.z
*264 uio_oe_ibuf_I\[2\]\.z
*265 uio_oe_ibuf_I\[3\]\.z
*266 uio_oe_ibuf_I\[4\]\.z
*267 uio_oe_ibuf_I\[5\]\.z
*268 uio_oe_ibuf_I\[6\]\.z
*269 uio_oe_ibuf_I\[7\]\.z
*270 uio_oe_ibuf_I\[8\]\.z
*271 uio_oe_ibuf_I\[9\]\.z
*272 uio_oe_mux_I\[0\]\.x
*273 uio_oe_mux_I\[1\]\.x
*274 uio_oe_mux_I\[2\]\.x
*275 uio_oe_mux_I\[3\]\.x
*276 uio_oe_mux_I\[4\]\.x
*277 uio_oe_mux_I\[5\]\.x
*278 uio_oe_mux_I\[6\]\.x
*279 uio_oe_mux_I\[7\]\.x
*280 uio_out_ibuf_I\[0\]\.z
*281 uio_out_ibuf_I\[10\]\.z
*282 uio_out_ibuf_I\[11\]\.z
*283 uio_out_ibuf_I\[12\]\.z
*284 uio_out_ibuf_I\[13\]\.z
*285 uio_out_ibuf_I\[14\]\.z
*286 uio_out_ibuf_I\[15\]\.z
*287 uio_out_ibuf_I\[1\]\.z
*288 uio_out_ibuf_I\[2\]\.z
*289 uio_out_ibuf_I\[3\]\.z
*290 uio_out_ibuf_I\[4\]\.z
*291 uio_out_ibuf_I\[5\]\.z
*292 uio_out_ibuf_I\[6\]\.z
*293 uio_out_ibuf_I\[7\]\.z
*294 uio_out_ibuf_I\[8\]\.z
*295 uio_out_ibuf_I\[9\]\.z
*296 uio_out_mux_I\[0\]\.x
*297 uio_out_mux_I\[1\]\.x
*298 uio_out_mux_I\[2\]\.x
*299 uio_out_mux_I\[3\]\.x
*300 uio_out_mux_I\[4\]\.x
*301 uio_out_mux_I\[5\]\.x
*302 uio_out_mux_I\[6\]\.x
*303 uio_out_mux_I\[7\]\.x
*304 uo_out_ibuf_I\[0\]\.z
*305 uo_out_ibuf_I\[10\]\.z
*306 uo_out_ibuf_I\[11\]\.z
*307 uo_out_ibuf_I\[12\]\.z
*308 uo_out_ibuf_I\[13\]\.z
*309 uo_out_ibuf_I\[14\]\.z
*310 uo_out_ibuf_I\[15\]\.z
*311 uo_out_ibuf_I\[1\]\.z
*312 uo_out_ibuf_I\[2\]\.z
*313 uo_out_ibuf_I\[3\]\.z
*314 uo_out_ibuf_I\[4\]\.z
*315 uo_out_ibuf_I\[5\]\.z
*316 uo_out_ibuf_I\[6\]\.z
*317 uo_out_ibuf_I\[7\]\.z
*318 uo_out_ibuf_I\[8\]\.z
*319 uo_out_ibuf_I\[9\]\.z
*320 uo_out_mux_I\[0\]\.x
*321 uo_out_mux_I\[1\]\.x
*322 uo_out_mux_I\[2\]\.x
*323 uo_out_mux_I\[3\]\.x
*324 uo_out_mux_I\[4\]\.x
*325 uo_out_mux_I\[5\]\.x
*326 uo_out_mux_I\[6\]\.x
*327 uo_out_mux_I\[7\]\.x
*328 ANTENNA_1
*329 FILLER_0_0_101
*330 FILLER_0_0_108
*331 FILLER_0_0_11
*332 FILLER_0_0_113
*333 FILLER_0_0_121
*334 FILLER_0_0_129
*335 FILLER_0_0_137
*336 FILLER_0_0_141
*337 FILLER_0_0_149
*338 FILLER_0_0_157
*339 FILLER_0_0_165
*340 FILLER_0_0_169
*341 FILLER_0_0_177
*342 FILLER_0_0_185
*343 FILLER_0_0_189
*344 FILLER_0_0_197
*345 FILLER_0_0_205
*346 FILLER_0_0_213
*347 FILLER_0_0_221
*348 FILLER_0_0_225
*349 FILLER_0_0_233
*350 FILLER_0_0_241
*351 FILLER_0_0_249
*352 FILLER_0_0_253
*353 FILLER_0_0_275
*354 FILLER_0_0_279
*355 FILLER_0_0_281
*356 FILLER_0_0_289
*357 FILLER_0_0_29
*358 FILLER_0_0_293
*359 FILLER_0_0_3
*360 FILLER_0_0_306
*361 FILLER_0_0_309
*362 FILLER_0_0_317
*363 FILLER_0_0_325
*364 FILLER_0_0_333
*365 FILLER_0_0_337
*366 FILLER_0_0_345
*367 FILLER_0_0_353
*368 FILLER_0_0_361
*369 FILLER_0_0_365
*370 FILLER_0_0_37
*371 FILLER_0_0_373
*372 FILLER_0_0_381
*373 FILLER_0_0_45
*374 FILLER_0_0_53
*375 FILLER_0_0_57
*376 FILLER_0_0_65
*377 FILLER_0_0_73
*378 FILLER_0_0_81
*379 FILLER_0_0_85
*380 FILLER_0_0_93
*381 FILLER_0_10_101
*382 FILLER_0_10_109
*383 FILLER_0_10_11
*384 FILLER_0_10_117
*385 FILLER_0_10_125
*386 FILLER_0_10_133
*387 FILLER_0_10_139
*388 FILLER_0_10_141
*389 FILLER_0_10_149
*390 FILLER_0_10_157
*391 FILLER_0_10_165
*392 FILLER_0_10_173
*393 FILLER_0_10_181
*394 FILLER_0_10_189
*395 FILLER_0_10_19
*396 FILLER_0_10_195
*397 FILLER_0_10_197
*398 FILLER_0_10_205
*399 FILLER_0_10_213
*400 FILLER_0_10_221
*401 FILLER_0_10_229
*402 FILLER_0_10_237
*403 FILLER_0_10_245
*404 FILLER_0_10_251
*405 FILLER_0_10_253
*406 FILLER_0_10_27
*407 FILLER_0_10_278
*408 FILLER_0_10_286
*409 FILLER_0_10_29
*410 FILLER_0_10_294
*411 FILLER_0_10_3
*412 FILLER_0_10_302
*413 FILLER_0_10_309
*414 FILLER_0_10_317
*415 FILLER_0_10_325
*416 FILLER_0_10_333
*417 FILLER_0_10_341
*418 FILLER_0_10_349
*419 FILLER_0_10_357
*420 FILLER_0_10_363
*421 FILLER_0_10_365
*422 FILLER_0_10_37
*423 FILLER_0_10_373
*424 FILLER_0_10_381
*425 FILLER_0_10_45
*426 FILLER_0_10_53
*427 FILLER_0_10_61
*428 FILLER_0_10_69
*429 FILLER_0_10_77
*430 FILLER_0_10_83
*431 FILLER_0_10_85
*432 FILLER_0_10_93
*433 FILLER_0_11_105
*434 FILLER_0_11_11
*435 FILLER_0_11_111
*436 FILLER_0_11_113
*437 FILLER_0_11_121
*438 FILLER_0_11_129
*439 FILLER_0_11_137
*440 FILLER_0_11_145
*441 FILLER_0_11_153
*442 FILLER_0_11_161
*443 FILLER_0_11_167
*444 FILLER_0_11_169
*445 FILLER_0_11_177
*446 FILLER_0_11_185
*447 FILLER_0_11_19
*448 FILLER_0_11_193
*449 FILLER_0_11_201
*450 FILLER_0_11_209
*451 FILLER_0_11_217
*452 FILLER_0_11_223
*453 FILLER_0_11_225
*454 FILLER_0_11_233
*455 FILLER_0_11_259
*456 FILLER_0_11_267
*457 FILLER_0_11_27
*458 FILLER_0_11_275
*459 FILLER_0_11_279
*460 FILLER_0_11_281
*461 FILLER_0_11_289
*462 FILLER_0_11_297
*463 FILLER_0_11_3
*464 FILLER_0_11_305
*465 FILLER_0_11_313
*466 FILLER_0_11_321
*467 FILLER_0_11_329
*468 FILLER_0_11_335
*469 FILLER_0_11_337
*470 FILLER_0_11_345
*471 FILLER_0_11_35
*472 FILLER_0_11_353
*473 FILLER_0_11_361
*474 FILLER_0_11_369
*475 FILLER_0_11_377
*476 FILLER_0_11_43
*477 FILLER_0_11_51
*478 FILLER_0_11_55
*479 FILLER_0_11_57
*480 FILLER_0_11_65
*481 FILLER_0_11_73
*482 FILLER_0_11_81
*483 FILLER_0_11_89
*484 FILLER_0_11_97
*485 FILLER_0_12_101
*486 FILLER_0_12_109
*487 FILLER_0_12_11
*488 FILLER_0_12_117
*489 FILLER_0_12_125
*490 FILLER_0_12_133
*491 FILLER_0_12_139
*492 FILLER_0_12_141
*493 FILLER_0_12_149
*494 FILLER_0_12_157
*495 FILLER_0_12_165
*496 FILLER_0_12_173
*497 FILLER_0_12_181
*498 FILLER_0_12_189
*499 FILLER_0_12_19
*500 FILLER_0_12_195
*501 FILLER_0_12_197
*502 FILLER_0_12_201
*503 FILLER_0_12_250
*504 FILLER_0_12_27
*505 FILLER_0_12_277
*506 FILLER_0_12_285
*507 FILLER_0_12_29
*508 FILLER_0_12_293
*509 FILLER_0_12_3
*510 FILLER_0_12_301
*511 FILLER_0_12_307
*512 FILLER_0_12_309
*513 FILLER_0_12_317
*514 FILLER_0_12_325
*515 FILLER_0_12_333
*516 FILLER_0_12_341
*517 FILLER_0_12_349
*518 FILLER_0_12_357
*519 FILLER_0_12_363
*520 FILLER_0_12_365
*521 FILLER_0_12_37
*522 FILLER_0_12_373
*523 FILLER_0_12_381
*524 FILLER_0_12_45
*525 FILLER_0_12_53
*526 FILLER_0_12_61
*527 FILLER_0_12_69
*528 FILLER_0_12_77
*529 FILLER_0_12_83
*530 FILLER_0_12_85
*531 FILLER_0_12_93
*532 FILLER_0_13_104
*533 FILLER_0_13_11
*534 FILLER_0_13_113
*535 FILLER_0_13_121
*536 FILLER_0_13_129
*537 FILLER_0_13_137
*538 FILLER_0_13_145
*539 FILLER_0_13_153
*540 FILLER_0_13_161
*541 FILLER_0_13_167
*542 FILLER_0_13_169
*543 FILLER_0_13_177
*544 FILLER_0_13_185
*545 FILLER_0_13_19
*546 FILLER_0_13_193
*547 FILLER_0_13_201
*548 FILLER_0_13_209
*549 FILLER_0_13_217
*550 FILLER_0_13_223
*551 FILLER_0_13_225
*552 FILLER_0_13_233
*553 FILLER_0_13_241
*554 FILLER_0_13_249
*555 FILLER_0_13_27
*556 FILLER_0_13_276
*557 FILLER_0_13_281
*558 FILLER_0_13_289
*559 FILLER_0_13_297
*560 FILLER_0_13_3
*561 FILLER_0_13_305
*562 FILLER_0_13_313
*563 FILLER_0_13_321
*564 FILLER_0_13_329
*565 FILLER_0_13_335
*566 FILLER_0_13_337
*567 FILLER_0_13_345
*568 FILLER_0_13_35
*569 FILLER_0_13_353
*570 FILLER_0_13_361
*571 FILLER_0_13_369
*572 FILLER_0_13_377
*573 FILLER_0_13_43
*574 FILLER_0_13_51
*575 FILLER_0_13_55
*576 FILLER_0_13_57
*577 FILLER_0_13_65
*578 FILLER_0_13_73
*579 FILLER_0_13_77
*580 FILLER_0_13_80
*581 FILLER_0_13_88
*582 FILLER_0_13_96
*583 FILLER_0_14_101
*584 FILLER_0_14_109
*585 FILLER_0_14_11
*586 FILLER_0_14_117
*587 FILLER_0_14_125
*588 FILLER_0_14_133
*589 FILLER_0_14_139
*590 FILLER_0_14_141
*591 FILLER_0_14_149
*592 FILLER_0_14_157
*593 FILLER_0_14_165
*594 FILLER_0_14_173
*595 FILLER_0_14_181
*596 FILLER_0_14_189
*597 FILLER_0_14_19
*598 FILLER_0_14_195
*599 FILLER_0_14_209
*600 FILLER_0_14_217
*601 FILLER_0_14_225
*602 FILLER_0_14_233
*603 FILLER_0_14_241
*604 FILLER_0_14_249
*605 FILLER_0_14_253
*606 FILLER_0_14_261
*607 FILLER_0_14_269
*608 FILLER_0_14_27
*609 FILLER_0_14_277
*610 FILLER_0_14_285
*611 FILLER_0_14_29
*612 FILLER_0_14_293
*613 FILLER_0_14_3
*614 FILLER_0_14_301
*615 FILLER_0_14_307
*616 FILLER_0_14_309
*617 FILLER_0_14_317
*618 FILLER_0_14_325
*619 FILLER_0_14_333
*620 FILLER_0_14_341
*621 FILLER_0_14_349
*622 FILLER_0_14_357
*623 FILLER_0_14_363
*624 FILLER_0_14_365
*625 FILLER_0_14_37
*626 FILLER_0_14_373
*627 FILLER_0_14_381
*628 FILLER_0_14_45
*629 FILLER_0_14_53
*630 FILLER_0_14_61
*631 FILLER_0_14_69
*632 FILLER_0_14_77
*633 FILLER_0_14_83
*634 FILLER_0_14_85
*635 FILLER_0_14_93
*636 FILLER_0_15_105
*637 FILLER_0_15_11
*638 FILLER_0_15_111
*639 FILLER_0_15_113
*640 FILLER_0_15_121
*641 FILLER_0_15_129
*642 FILLER_0_15_137
*643 FILLER_0_15_145
*644 FILLER_0_15_153
*645 FILLER_0_15_161
*646 FILLER_0_15_167
*647 FILLER_0_15_169
*648 FILLER_0_15_177
*649 FILLER_0_15_185
*650 FILLER_0_15_19
*651 FILLER_0_15_193
*652 FILLER_0_15_201
*653 FILLER_0_15_221
*654 FILLER_0_15_225
*655 FILLER_0_15_233
*656 FILLER_0_15_241
*657 FILLER_0_15_249
*658 FILLER_0_15_267
*659 FILLER_0_15_27
*660 FILLER_0_15_275
*661 FILLER_0_15_279
*662 FILLER_0_15_281
*663 FILLER_0_15_289
*664 FILLER_0_15_297
*665 FILLER_0_15_3
*666 FILLER_0_15_305
*667 FILLER_0_15_313
*668 FILLER_0_15_321
*669 FILLER_0_15_329
*670 FILLER_0_15_335
*671 FILLER_0_15_337
*672 FILLER_0_15_345
*673 FILLER_0_15_35
*674 FILLER_0_15_353
*675 FILLER_0_15_361
*676 FILLER_0_15_369
*677 FILLER_0_15_377
*678 FILLER_0_15_43
*679 FILLER_0_15_51
*680 FILLER_0_15_55
*681 FILLER_0_15_57
*682 FILLER_0_15_65
*683 FILLER_0_15_73
*684 FILLER_0_15_81
*685 FILLER_0_15_89
*686 FILLER_0_15_97
*687 FILLER_0_16_101
*688 FILLER_0_16_109
*689 FILLER_0_16_11
*690 FILLER_0_16_117
*691 FILLER_0_16_125
*692 FILLER_0_16_133
*693 FILLER_0_16_139
*694 FILLER_0_16_141
*695 FILLER_0_16_149
*696 FILLER_0_16_157
*697 FILLER_0_16_165
*698 FILLER_0_16_173
*699 FILLER_0_16_181
*700 FILLER_0_16_189
*701 FILLER_0_16_19
*702 FILLER_0_16_195
*703 FILLER_0_16_197
*704 FILLER_0_16_205
*705 FILLER_0_16_220
*706 FILLER_0_16_228
*707 FILLER_0_16_236
*708 FILLER_0_16_244
*709 FILLER_0_16_27
*710 FILLER_0_16_277
*711 FILLER_0_16_285
*712 FILLER_0_16_29
*713 FILLER_0_16_293
*714 FILLER_0_16_3
*715 FILLER_0_16_301
*716 FILLER_0_16_307
*717 FILLER_0_16_309
*718 FILLER_0_16_317
*719 FILLER_0_16_325
*720 FILLER_0_16_333
*721 FILLER_0_16_341
*722 FILLER_0_16_349
*723 FILLER_0_16_357
*724 FILLER_0_16_363
*725 FILLER_0_16_365
*726 FILLER_0_16_37
*727 FILLER_0_16_373
*728 FILLER_0_16_381
*729 FILLER_0_16_45
*730 FILLER_0_16_53
*731 FILLER_0_16_61
*732 FILLER_0_16_69
*733 FILLER_0_16_77
*734 FILLER_0_16_83
*735 FILLER_0_16_85
*736 FILLER_0_16_93
*737 FILLER_0_17_105
*738 FILLER_0_17_11
*739 FILLER_0_17_111
*740 FILLER_0_17_113
*741 FILLER_0_17_121
*742 FILLER_0_17_129
*743 FILLER_0_17_137
*744 FILLER_0_17_145
*745 FILLER_0_17_153
*746 FILLER_0_17_161
*747 FILLER_0_17_167
*748 FILLER_0_17_169
*749 FILLER_0_17_177
*750 FILLER_0_17_185
*751 FILLER_0_17_19
*752 FILLER_0_17_193
*753 FILLER_0_17_201
*754 FILLER_0_17_209
*755 FILLER_0_17_217
*756 FILLER_0_17_223
*757 FILLER_0_17_225
*758 FILLER_0_17_233
*759 FILLER_0_17_241
*760 FILLER_0_17_249
*761 FILLER_0_17_257
*762 FILLER_0_17_261
*763 FILLER_0_17_27
*764 FILLER_0_17_274
*765 FILLER_0_17_281
*766 FILLER_0_17_289
*767 FILLER_0_17_297
*768 FILLER_0_17_3
*769 FILLER_0_17_305
*770 FILLER_0_17_313
*771 FILLER_0_17_321
*772 FILLER_0_17_329
*773 FILLER_0_17_335
*774 FILLER_0_17_337
*775 FILLER_0_17_345
*776 FILLER_0_17_35
*777 FILLER_0_17_353
*778 FILLER_0_17_361
*779 FILLER_0_17_369
*780 FILLER_0_17_377
*781 FILLER_0_17_43
*782 FILLER_0_17_51
*783 FILLER_0_17_55
*784 FILLER_0_17_57
*785 FILLER_0_17_65
*786 FILLER_0_17_73
*787 FILLER_0_17_81
*788 FILLER_0_17_89
*789 FILLER_0_17_97
*790 FILLER_0_18_101
*791 FILLER_0_18_109
*792 FILLER_0_18_11
*793 FILLER_0_18_117
*794 FILLER_0_18_125
*795 FILLER_0_18_133
*796 FILLER_0_18_139
*797 FILLER_0_18_141
*798 FILLER_0_18_149
*799 FILLER_0_18_157
*800 FILLER_0_18_165
*801 FILLER_0_18_173
*802 FILLER_0_18_181
*803 FILLER_0_18_189
*804 FILLER_0_18_19
*805 FILLER_0_18_195
*806 FILLER_0_18_197
*807 FILLER_0_18_205
*808 FILLER_0_18_213
*809 FILLER_0_18_221
*810 FILLER_0_18_229
*811 FILLER_0_18_237
*812 FILLER_0_18_245
*813 FILLER_0_18_251
*814 FILLER_0_18_253
*815 FILLER_0_18_261
*816 FILLER_0_18_268
*817 FILLER_0_18_27
*818 FILLER_0_18_276
*819 FILLER_0_18_284
*820 FILLER_0_18_29
*821 FILLER_0_18_292
*822 FILLER_0_18_3
*823 FILLER_0_18_300
*824 FILLER_0_18_309
*825 FILLER_0_18_317
*826 FILLER_0_18_325
*827 FILLER_0_18_333
*828 FILLER_0_18_341
*829 FILLER_0_18_349
*830 FILLER_0_18_357
*831 FILLER_0_18_363
*832 FILLER_0_18_365
*833 FILLER_0_18_37
*834 FILLER_0_18_373
*835 FILLER_0_18_381
*836 FILLER_0_18_45
*837 FILLER_0_18_53
*838 FILLER_0_18_61
*839 FILLER_0_18_69
*840 FILLER_0_18_77
*841 FILLER_0_18_83
*842 FILLER_0_18_85
*843 FILLER_0_18_93
*844 FILLER_0_19_105
*845 FILLER_0_19_11
*846 FILLER_0_19_111
*847 FILLER_0_19_113
*848 FILLER_0_19_121
*849 FILLER_0_19_129
*850 FILLER_0_19_137
*851 FILLER_0_19_145
*852 FILLER_0_19_153
*853 FILLER_0_19_161
*854 FILLER_0_19_167
*855 FILLER_0_19_169
*856 FILLER_0_19_177
*857 FILLER_0_19_185
*858 FILLER_0_19_19
*859 FILLER_0_19_193
*860 FILLER_0_19_201
*861 FILLER_0_19_209
*862 FILLER_0_19_217
*863 FILLER_0_19_223
*864 FILLER_0_19_225
*865 FILLER_0_19_233
*866 FILLER_0_19_241
*867 FILLER_0_19_249
*868 FILLER_0_19_257
*869 FILLER_0_19_263
*870 FILLER_0_19_27
*871 FILLER_0_19_276
*872 FILLER_0_19_281
*873 FILLER_0_19_289
*874 FILLER_0_19_297
*875 FILLER_0_19_3
*876 FILLER_0_19_305
*877 FILLER_0_19_313
*878 FILLER_0_19_321
*879 FILLER_0_19_329
*880 FILLER_0_19_335
*881 FILLER_0_19_337
*882 FILLER_0_19_345
*883 FILLER_0_19_35
*884 FILLER_0_19_353
*885 FILLER_0_19_361
*886 FILLER_0_19_367
*887 FILLER_0_19_372
*888 FILLER_0_19_380
*889 FILLER_0_19_384
*890 FILLER_0_19_43
*891 FILLER_0_19_51
*892 FILLER_0_19_55
*893 FILLER_0_19_57
*894 FILLER_0_19_65
*895 FILLER_0_19_73
*896 FILLER_0_19_81
*897 FILLER_0_19_89
*898 FILLER_0_19_97
*899 FILLER_0_1_11
*900 FILLER_0_1_124
*901 FILLER_0_1_138
*902 FILLER_0_1_146
*903 FILLER_0_1_154
*904 FILLER_0_1_17
*905 FILLER_0_1_177
*906 FILLER_0_1_212
*907 FILLER_0_1_220
*908 FILLER_0_1_225
*909 FILLER_0_1_233
*910 FILLER_0_1_241
*911 FILLER_0_1_275
*912 FILLER_0_1_279
*913 FILLER_0_1_3
*914 FILLER_0_1_305
*915 FILLER_0_1_311
*916 FILLER_0_1_319
*917 FILLER_0_1_327
*918 FILLER_0_1_335
*919 FILLER_0_1_337
*920 FILLER_0_1_340
*921 FILLER_0_1_344
*922 FILLER_0_1_352
*923 FILLER_0_1_360
*924 FILLER_0_1_368
*925 FILLER_0_1_376
*926 FILLER_0_1_384
*927 FILLER_0_1_49
*928 FILLER_0_1_55
*929 FILLER_0_1_57
*930 FILLER_0_1_62
*931 FILLER_0_1_70
*932 FILLER_0_1_95
*933 FILLER_0_20_101
*934 FILLER_0_20_109
*935 FILLER_0_20_11
*936 FILLER_0_20_117
*937 FILLER_0_20_125
*938 FILLER_0_20_133
*939 FILLER_0_20_139
*940 FILLER_0_20_141
*941 FILLER_0_20_149
*942 FILLER_0_20_157
*943 FILLER_0_20_165
*944 FILLER_0_20_173
*945 FILLER_0_20_181
*946 FILLER_0_20_189
*947 FILLER_0_20_19
*948 FILLER_0_20_195
*949 FILLER_0_20_197
*950 FILLER_0_20_205
*951 FILLER_0_20_213
*952 FILLER_0_20_228
*953 FILLER_0_20_236
*954 FILLER_0_20_244
*955 FILLER_0_20_253
*956 FILLER_0_20_259
*957 FILLER_0_20_27
*958 FILLER_0_20_278
*959 FILLER_0_20_286
*960 FILLER_0_20_29
*961 FILLER_0_20_294
*962 FILLER_0_20_3
*963 FILLER_0_20_302
*964 FILLER_0_20_309
*965 FILLER_0_20_317
*966 FILLER_0_20_325
*967 FILLER_0_20_333
*968 FILLER_0_20_341
*969 FILLER_0_20_349
*970 FILLER_0_20_357
*971 FILLER_0_20_363
*972 FILLER_0_20_367
*973 FILLER_0_20_37
*974 FILLER_0_20_375
*975 FILLER_0_20_383
*976 FILLER_0_20_45
*977 FILLER_0_20_53
*978 FILLER_0_20_61
*979 FILLER_0_20_69
*980 FILLER_0_20_77
*981 FILLER_0_20_83
*982 FILLER_0_20_85
*983 FILLER_0_20_93
*984 FILLER_0_21_105
*985 FILLER_0_21_11
*986 FILLER_0_21_111
*987 FILLER_0_21_113
*988 FILLER_0_21_121
*989 FILLER_0_21_129
*990 FILLER_0_21_137
*991 FILLER_0_21_145
*992 FILLER_0_21_153
*993 FILLER_0_21_161
*994 FILLER_0_21_167
*995 FILLER_0_21_169
*996 FILLER_0_21_177
*997 FILLER_0_21_185
*998 FILLER_0_21_19
*999 FILLER_0_21_193
*1000 FILLER_0_21_206
*1001 FILLER_0_21_214
*1002 FILLER_0_21_222
*1003 FILLER_0_21_225
*1004 FILLER_0_21_233
*1005 FILLER_0_21_241
*1006 FILLER_0_21_255
*1007 FILLER_0_21_263
*1008 FILLER_0_21_27
*1009 FILLER_0_21_277
*1010 FILLER_0_21_281
*1011 FILLER_0_21_289
*1012 FILLER_0_21_297
*1013 FILLER_0_21_3
*1014 FILLER_0_21_305
*1015 FILLER_0_21_313
*1016 FILLER_0_21_321
*1017 FILLER_0_21_329
*1018 FILLER_0_21_335
*1019 FILLER_0_21_337
*1020 FILLER_0_21_345
*1021 FILLER_0_21_35
*1022 FILLER_0_21_353
*1023 FILLER_0_21_361
*1024 FILLER_0_21_369
*1025 FILLER_0_21_377
*1026 FILLER_0_21_43
*1027 FILLER_0_21_51
*1028 FILLER_0_21_55
*1029 FILLER_0_21_57
*1030 FILLER_0_21_65
*1031 FILLER_0_21_73
*1032 FILLER_0_21_81
*1033 FILLER_0_21_89
*1034 FILLER_0_21_97
*1035 FILLER_0_22_101
*1036 FILLER_0_22_106
*1037 FILLER_0_22_11
*1038 FILLER_0_22_114
*1039 FILLER_0_22_122
*1040 FILLER_0_22_130
*1041 FILLER_0_22_138
*1042 FILLER_0_22_141
*1043 FILLER_0_22_149
*1044 FILLER_0_22_157
*1045 FILLER_0_22_165
*1046 FILLER_0_22_173
*1047 FILLER_0_22_181
*1048 FILLER_0_22_189
*1049 FILLER_0_22_19
*1050 FILLER_0_22_195
*1051 FILLER_0_22_197
*1052 FILLER_0_22_205
*1053 FILLER_0_22_211
*1054 FILLER_0_22_218
*1055 FILLER_0_22_226
*1056 FILLER_0_22_234
*1057 FILLER_0_22_242
*1058 FILLER_0_22_253
*1059 FILLER_0_22_261
*1060 FILLER_0_22_27
*1061 FILLER_0_22_279
*1062 FILLER_0_22_287
*1063 FILLER_0_22_29
*1064 FILLER_0_22_295
*1065 FILLER_0_22_3
*1066 FILLER_0_22_303
*1067 FILLER_0_22_307
*1068 FILLER_0_22_309
*1069 FILLER_0_22_317
*1070 FILLER_0_22_325
*1071 FILLER_0_22_333
*1072 FILLER_0_22_341
*1073 FILLER_0_22_349
*1074 FILLER_0_22_357
*1075 FILLER_0_22_363
*1076 FILLER_0_22_365
*1077 FILLER_0_22_37
*1078 FILLER_0_22_373
*1079 FILLER_0_22_381
*1080 FILLER_0_22_45
*1081 FILLER_0_22_53
*1082 FILLER_0_22_61
*1083 FILLER_0_22_69
*1084 FILLER_0_22_77
*1085 FILLER_0_22_83
*1086 FILLER_0_22_85
*1087 FILLER_0_22_93
*1088 FILLER_0_23_105
*1089 FILLER_0_23_109
*1090 FILLER_0_23_11
*1091 FILLER_0_23_113
*1092 FILLER_0_23_121
*1093 FILLER_0_23_129
*1094 FILLER_0_23_137
*1095 FILLER_0_23_145
*1096 FILLER_0_23_153
*1097 FILLER_0_23_161
*1098 FILLER_0_23_167
*1099 FILLER_0_23_169
*1100 FILLER_0_23_177
*1101 FILLER_0_23_185
*1102 FILLER_0_23_19
*1103 FILLER_0_23_193
*1104 FILLER_0_23_209
*1105 FILLER_0_23_225
*1106 FILLER_0_23_233
*1107 FILLER_0_23_241
*1108 FILLER_0_23_249
*1109 FILLER_0_23_257
*1110 FILLER_0_23_265
*1111 FILLER_0_23_27
*1112 FILLER_0_23_273
*1113 FILLER_0_23_279
*1114 FILLER_0_23_281
*1115 FILLER_0_23_289
*1116 FILLER_0_23_297
*1117 FILLER_0_23_3
*1118 FILLER_0_23_305
*1119 FILLER_0_23_313
*1120 FILLER_0_23_321
*1121 FILLER_0_23_329
*1122 FILLER_0_23_335
*1123 FILLER_0_23_337
*1124 FILLER_0_23_345
*1125 FILLER_0_23_35
*1126 FILLER_0_23_353
*1127 FILLER_0_23_361
*1128 FILLER_0_23_369
*1129 FILLER_0_23_377
*1130 FILLER_0_23_43
*1131 FILLER_0_23_51
*1132 FILLER_0_23_55
*1133 FILLER_0_23_57
*1134 FILLER_0_23_65
*1135 FILLER_0_23_73
*1136 FILLER_0_23_81
*1137 FILLER_0_23_89
*1138 FILLER_0_23_97
*1139 FILLER_0_24_101
*1140 FILLER_0_24_109
*1141 FILLER_0_24_11
*1142 FILLER_0_24_117
*1143 FILLER_0_24_125
*1144 FILLER_0_24_133
*1145 FILLER_0_24_139
*1146 FILLER_0_24_141
*1147 FILLER_0_24_149
*1148 FILLER_0_24_157
*1149 FILLER_0_24_165
*1150 FILLER_0_24_173
*1151 FILLER_0_24_181
*1152 FILLER_0_24_189
*1153 FILLER_0_24_19
*1154 FILLER_0_24_195
*1155 FILLER_0_24_197
*1156 FILLER_0_24_205
*1157 FILLER_0_24_213
*1158 FILLER_0_24_221
*1159 FILLER_0_24_229
*1160 FILLER_0_24_237
*1161 FILLER_0_24_245
*1162 FILLER_0_24_251
*1163 FILLER_0_24_253
*1164 FILLER_0_24_261
*1165 FILLER_0_24_269
*1166 FILLER_0_24_27
*1167 FILLER_0_24_277
*1168 FILLER_0_24_285
*1169 FILLER_0_24_29
*1170 FILLER_0_24_293
*1171 FILLER_0_24_3
*1172 FILLER_0_24_301
*1173 FILLER_0_24_307
*1174 FILLER_0_24_309
*1175 FILLER_0_24_317
*1176 FILLER_0_24_325
*1177 FILLER_0_24_333
*1178 FILLER_0_24_341
*1179 FILLER_0_24_349
*1180 FILLER_0_24_357
*1181 FILLER_0_24_362
*1182 FILLER_0_24_365
*1183 FILLER_0_24_37
*1184 FILLER_0_24_373
*1185 FILLER_0_24_381
*1186 FILLER_0_24_45
*1187 FILLER_0_24_53
*1188 FILLER_0_24_61
*1189 FILLER_0_24_69
*1190 FILLER_0_24_72
*1191 FILLER_0_24_80
*1192 FILLER_0_24_85
*1193 FILLER_0_24_93
*1194 FILLER_0_25_105
*1195 FILLER_0_25_11
*1196 FILLER_0_25_111
*1197 FILLER_0_25_113
*1198 FILLER_0_25_123
*1199 FILLER_0_25_131
*1200 FILLER_0_25_139
*1201 FILLER_0_25_147
*1202 FILLER_0_25_155
*1203 FILLER_0_25_163
*1204 FILLER_0_25_167
*1205 FILLER_0_25_169
*1206 FILLER_0_25_177
*1207 FILLER_0_25_180
*1208 FILLER_0_25_188
*1209 FILLER_0_25_19
*1210 FILLER_0_25_196
*1211 FILLER_0_25_202
*1212 FILLER_0_25_221
*1213 FILLER_0_25_225
*1214 FILLER_0_25_257
*1215 FILLER_0_25_265
*1216 FILLER_0_25_27
*1217 FILLER_0_25_273
*1218 FILLER_0_25_279
*1219 FILLER_0_25_281
*1220 FILLER_0_25_289
*1221 FILLER_0_25_297
*1222 FILLER_0_25_3
*1223 FILLER_0_25_305
*1224 FILLER_0_25_313
*1225 FILLER_0_25_321
*1226 FILLER_0_25_329
*1227 FILLER_0_25_335
*1228 FILLER_0_25_337
*1229 FILLER_0_25_345