*SPEF "ieee 1481-1999"
*DESIGN "tt_um_shadow1229_vga_player"
*DATE "18:48:35 Sunday May 26, 2024"
*VENDOR "The OpenROAD Project"
*PROGRAM "OpenROAD"
*VERSION "da0053d7b0014ab9c87ea148875ff6c2a0f9b658"
*DESIGN_FLOW "NAME_SCOPE LOCAL" "PIN_CAP NONE"
*DIVIDER /
*DELIMITER :
*BUS_DELIMITER []
*T_UNIT 1 NS
*C_UNIT 1 PF
*R_UNIT 1 OHM
*L_UNIT 1 HENRY

*NAME_MAP
*3 clk
*4 ena
*5 rst_n
*6 ui_in[0]
*7 ui_in[1]
*8 ui_in[2]
*9 ui_in[3]
*10 ui_in[4]
*11 ui_in[5]
*12 ui_in[6]
*13 ui_in[7]
*14 uio_in[0]
*15 uio_in[1]
*16 uio_in[2]
*17 uio_in[3]
*18 uio_in[4]
*19 uio_in[5]
*20 uio_in[6]
*21 uio_in[7]
*22 uio_oe[0]
*23 uio_oe[1]
*24 uio_oe[2]
*25 net19
*26 net20
*27 net21
*28 net22
*29 net23
*30 uio_out[0]
*31 uio_out[1]
*32 uio_out[2]
*33 uio_out[3]
*34 uio_out[4]
*35 uio_out[5]
*36 uio_out[6]
*37 uio_out[7]
*38 uo_out[0]
*39 uo_out[1]
*40 uo_out[2]
*41 uo_out[3]
*42 uo_out[4]
*43 uo_out[5]
*44 uo_out[6]
*45 uo_out[7]
*46 _0000_
*47 _0001_
*48 _0002_
*49 _0003_
*50 _0004_
*51 _0005_
*52 _0006_
*53 _0007_
*54 _0008_
*55 _0009_
*56 _0010_
*57 _0011_
*58 _0012_
*59 _0013_
*60 _0014_
*61 _0015_
*62 _0016_
*63 _0017_
*64 _0018_
*65 _0019_
*66 _0020_
*67 _0021_
*68 _0022_
*69 _0023_
*70 _0024_
*71 _0025_
*72 _0026_
*73 _0027_
*74 _0028_
*75 _0029_
*76 _0030_
*77 _0031_
*78 _0032_
*79 _0033_
*80 _0034_
*81 _0035_
*82 _0036_
*83 _0037_
*84 _0038_
*85 _0039_
*86 _0040_
*87 _0041_
*88 _0042_
*89 _0043_
*90 _0044_
*91 _0045_
*92 _0046_
*93 _0047_
*94 _0048_
*95 _0049_
*96 _0050_
*97 _0051_
*98 _0052_
*99 _0053_
*100 _0054_
*101 _0055_
*102 _0056_
*103 _0057_
*104 _0058_
*105 _0059_
*106 _0060_
*107 _0061_
*108 _0062_
*109 _0063_
*110 _0064_
*111 _0065_
*112 _0066_
*113 _0067_
*114 _0068_
*115 _0069_
*116 _0070_
*117 _0071_
*118 _0072_
*119 _0073_
*120 _0074_
*121 _0075_
*122 _0076_
*123 _0077_
*124 _0078_
*125 _0079_
*126 _0080_
*127 _0081_
*128 _0082_
*129 _0083_
*130 _0084_
*131 _0085_
*132 _0086_
*133 _0087_
*134 _0088_
*135 _0089_
*136 _0090_
*137 _0091_
*138 _0092_
*139 _0093_
*140 _0094_
*141 _0095_
*142 _0096_
*143 _0097_
*144 _0098_
*145 _0099_
*146 _0100_
*147 _0101_
*148 _0102_
*149 _0103_
*150 _0104_
*151 _0105_
*152 _0106_
*153 _0107_
*154 _0108_
*155 _0109_
*156 _0110_
*157 _0111_
*158 _0112_
*159 _0113_
*160 _0114_
*161 _0115_
*162 _0116_
*163 _0117_
*164 _0118_
*165 _0119_
*166 _0120_
*167 _0121_
*168 _0122_
*169 _0123_
*170 _0124_
*171 _0125_
*172 _0126_
*173 _0127_
*174 _0128_
*175 _0129_
*176 _0130_
*177 _0131_
*178 _0132_
*179 _0133_
*180 _0134_
*181 _0135_
*182 _0136_
*183 _0137_
*184 _0138_
*185 _0139_
*186 _0140_
*187 _0141_
*188 _0142_
*189 _0143_
*190 _0144_
*191 _0145_
*192 _0146_
*193 _0147_
*194 _0148_
*195 _0149_
*196 _0150_
*197 _0151_
*198 _0152_
*199 _0153_
*200 _0154_
*201 _0155_
*202 _0156_
*203 _0157_
*204 _0158_
*205 _0159_
*206 _0160_
*207 _0161_
*208 _0162_
*209 _0163_
*210 _0164_
*211 _0165_
*212 _0166_
*213 _0167_
*214 _0168_
*215 _0169_
*216 _0170_
*217 _0171_
*218 _0172_
*219 _0173_
*220 _0174_
*221 _0175_
*222 _0176_
*223 _0177_
*224 _0178_
*225 _0179_
*226 _0180_
*227 _0181_
*228 _0182_
*229 _0183_
*230 _0184_
*231 _0185_
*232 _0186_
*233 _0187_
*234 _0188_
*235 _0189_
*236 _0190_
*237 _0191_
*238 _0192_
*239 _0193_
*240 _0194_
*241 _0195_
*242 _0196_
*243 _0197_
*244 _0198_
*245 _0199_
*246 _0200_
*247 _0201_
*248 _0202_
*249 _0203_
*250 _0204_
*251 _0205_
*252 _0206_
*253 _0207_
*254 _0208_
*255 _0209_
*256 _0210_
*257 _0211_
*258 _0212_
*259 _0213_
*260 _0214_
*261 _0215_
*262 _0216_
*263 _0217_
*264 _0218_
*265 _0219_
*266 _0220_
*267 _0221_
*268 _0222_
*269 _0223_
*270 _0224_
*271 _0225_
*272 _0226_
*273 _0227_
*274 _0228_
*275 _0229_
*276 _0230_
*277 _0231_
*278 _0232_
*279 _0233_
*280 _0234_
*281 _0235_
*282 _0236_
*283 _0237_
*284 _0238_
*285 _0239_
*286 _0240_
*287 _0241_
*288 _0242_
*289 _0243_
*290 _0244_
*291 _0245_
*292 _0246_
*293 _0247_
*294 _0248_
*295 _0249_
*296 _0250_
*297 _0251_
*298 _0252_
*299 _0253_
*300 _0254_
*301 _0255_
*302 _0256_
*303 _0257_
*304 _0258_
*305 _0259_
*306 _0260_
*307 _0261_
*308 _0262_
*309 _0263_
*310 _0264_
*311 _0265_
*312 _0266_
*313 _0267_
*314 _0268_
*315 _0269_
*316 _0270_
*317 _0271_
*318 _0272_
*319 _0273_
*320 _0274_
*321 _0275_
*322 _0276_
*323 _0277_
*324 _0278_
*325 _0279_
*326 _0280_
*327 _0281_
*328 _0282_
*329 _0283_
*330 _0284_
*331 _0285_
*332 _0286_
*333 _0287_
*334 _0288_
*335 _0289_
*336 _0290_
*337 _0291_
*338 _0292_
*339 _0293_
*340 _0294_
*341 _0295_
*342 _0296_
*343 _0297_
*344 _0298_
*345 _0299_
*346 _0300_
*347 _0301_
*348 _0302_
*349 _0303_
*350 _0304_
*351 _0305_
*352 _0306_
*353 _0307_
*354 _0308_
*355 _0309_
*356 _0310_
*357 _0311_
*358 _0312_
*359 _0313_
*360 _0314_
*361 _0315_
*362 _0316_
*363 _0317_
*364 _0318_
*365 _0319_
*366 _0320_
*367 _0321_
*368 _0322_
*369 _0323_
*370 _0324_
*371 _0325_
*372 _0326_
*373 _0327_
*374 _0328_
*375 _0329_
*376 _0330_
*377 _0331_
*378 _0332_
*379 _0333_
*380 _0334_
*381 _0335_
*382 _0336_
*383 _0337_
*384 _0338_
*385 _0339_
*386 _0340_
*387 _0341_
*388 _0342_
*389 _0343_
*390 _0344_
*391 _0345_
*392 _0346_
*393 _0347_
*394 _0348_
*395 _0349_
*396 _0350_
*397 _0351_
*398 _0352_
*399 _0353_
*400 _0354_
*401 _0355_
*402 _0356_
*403 _0357_
*404 _0358_
*405 _0359_
*406 _0360_
*407 _0361_
*408 _0362_
*409 _0363_
*410 _0364_
*411 _0365_
*412 _0366_
*413 _0367_
*414 _0368_
*415 _0369_
*416 _0370_
*417 _0371_
*418 _0372_
*419 _0373_
*420 _0374_
*421 _0375_
*422 _0376_
*423 _0377_
*424 _0378_
*425 _0379_
*426 _0380_
*427 _0381_
*428 _0382_
*429 _0383_
*430 _0384_
*431 _0385_
*432 _0386_
*433 _0387_
*434 _0388_
*435 _0389_
*436 _0390_
*437 _0391_
*438 _0392_
*439 _0393_
*440 _0394_
*441 _0395_
*442 _0396_
*443 _0397_
*444 _0398_
*445 _0399_
*446 _0400_
*447 _0401_
*448 _0402_
*449 _0403_
*450 _0404_
*451 _0405_
*452 _0406_
*453 _0407_
*454 _0408_
*455 _0409_
*456 _0410_
*457 _0411_
*458 _0412_
*459 _0413_
*460 _0414_
*461 _0415_
*462 _0416_
*463 _0417_
*464 _0418_
*465 _0419_
*466 _0420_
*467 _0421_
*468 _0422_
*469 _0423_
*470 _0424_
*471 _0425_
*472 _0426_
*473 _0427_
*474 _0428_
*475 _0429_
*476 _0430_
*477 _0431_
*478 _0432_
*479 _0433_
*480 _0434_
*481 _0435_
*482 _0436_
*483 _0437_
*484 _0438_
*485 _0439_
*486 _0440_
*487 _0441_
*488 _0442_
*489 _0443_
*490 _0444_
*491 _0445_
*492 _0446_
*493 _0447_
*494 _0448_
*495 _0449_
*496 _0450_
*497 _0451_
*498 _0452_
*499 _0453_
*500 _0454_
*501 _0455_
*502 _0456_
*503 _0457_
*504 _0458_
*505 _0459_
*506 _0460_
*507 _0461_
*508 _0462_
*509 _0463_
*510 _0464_
*511 _0465_
*512 _0466_
*513 _0467_
*514 _0468_
*515 _0469_
*516 _0470_
*517 _0471_
*518 _0472_
*519 _0473_
*520 _0474_
*521 _0475_
*522 _0476_
*523 _0477_
*524 _0478_
*525 _0479_
*526 _0480_
*527 _0481_
*528 _0482_
*529 _0483_
*530 _0484_
*531 _0485_
*532 _0486_
*533 _0487_
*534 _0488_
*535 _0489_
*536 _0490_
*537 _0491_
*538 _0492_
*539 _0493_
*540 _0494_
*541 _0495_
*542 _0496_
*543 _0497_
*544 _0498_
*545 _0499_
*546 _0500_
*547 _0501_
*548 _0502_
*549 _0503_
*550 _0504_
*551 _0505_
*552 _0506_
*553 _0507_
*554 _0508_
*555 _0509_
*556 _0510_
*557 _0511_
*558 _0512_
*559 _0513_
*560 _0514_
*561 _0515_
*562 _0516_
*563 _0517_
*564 _0518_
*565 _0519_
*566 _0520_
*567 _0521_
*568 _0522_
*569 _0523_
*570 _0524_
*571 _0525_
*572 _0526_
*573 _0527_
*574 _0528_
*575 _0529_
*576 _0530_
*577 _0531_
*578 _0532_
*579 _0533_
*580 _0534_
*581 _0535_
*582 _0536_
*583 _0537_
*584 _0538_
*585 _0539_
*586 _0540_
*587 _0541_
*588 _0542_
*589 _0543_
*590 _0544_
*591 _0545_
*592 _0546_
*593 _0547_
*594 _0548_
*595 _0549_
*596 _0550_
*597 _0551_
*598 _0552_
*599 _0553_
*600 _0554_
*601 _0555_
*602 _0556_
*603 _0557_
*604 _0558_
*605 _0559_
*606 _0560_
*607 _0561_
*608 _0562_
*609 _0563_
*610 _0564_
*611 _0565_
*612 _0566_
*613 _0567_
*614 _0568_
*615 _0569_
*616 _0570_
*617 _0571_
*618 _0572_
*619 _0573_
*620 _0574_
*621 _0575_
*622 _0576_
*623 _0577_
*624 _0578_
*625 _0579_
*626 _0580_
*627 _0581_
*628 _0582_
*629 _0583_
*630 _0584_
*631 _0585_
*632 _0586_
*633 _0587_
*634 _0588_
*635 _0589_
*636 _0590_
*637 _0591_
*638 _0592_
*639 _0593_
*640 _0594_
*641 _0595_
*642 _0596_
*643 _0597_
*644 _0598_
*645 _0599_
*646 _0600_
*647 _0601_
*648 _0602_
*649 _0603_
*650 _0604_
*651 _0605_
*652 _0606_
*653 _0607_
*654 _0608_
*655 _0609_
*656 _0610_
*657 _0611_
*658 _0612_
*659 _0613_
*660 _0614_
*661 _0615_
*662 _0616_
*663 _0617_
*664 _0618_
*665 _0619_
*666 _0620_
*667 _0621_
*668 _0622_
*669 _0623_
*670 _0624_
*671 _0625_
*672 _0626_
*673 _0627_
*674 _0628_
*675 _0629_
*676 _0630_
*677 _0631_
*678 _0632_
*679 _0633_
*680 _0634_
*681 _0635_
*682 _0636_
*683 _0637_
*684 _0638_
*685 _0639_
*686 _0640_
*687 _0641_
*688 _0642_
*689 _0643_
*690 _0644_
*691 _0645_
*692 _0646_
*693 _0647_
*694 _0648_
*695 _0649_
*696 _0650_
*697 _0651_
*698 _0652_
*699 _0653_
*700 _0654_
*701 _0655_
*702 _0656_
*703 _0657_
*704 _0658_
*705 _0659_
*706 _0660_
*707 _0661_
*708 _0662_
*709 _0663_
*710 _0664_
*711 _0665_
*712 _0666_
*713 _0667_
*714 _0668_
*715 _0669_
*716 _0670_
*717 _0671_
*718 _0672_
*719 _0673_
*720 _0674_
*721 _0675_
*722 _0676_
*723 _0677_
*724 _0678_
*725 _0679_
*726 _0680_
*727 _0681_
*728 _0682_
*729 _0683_
*730 _0684_
*731 _0685_
*732 _0686_
*733 _0687_
*734 _0688_
*735 _0689_
*736 _0690_
*737 _0691_
*738 _0692_
*739 _0693_
*740 _0694_
*741 _0695_
*742 _0696_
*743 _0697_
*744 _0698_
*745 _0699_
*746 _0700_
*747 _0701_
*748 _0702_
*749 _0703_
*750 _0704_
*751 _0705_
*752 _0706_
*753 _0707_
*754 _0708_
*755 _0709_
*756 _0710_
*757 _0711_
*758 _0712_
*759 _0713_
*760 _0714_
*761 _0715_
*762 _0716_
*763 _0717_
*764 _0718_
*765 _0719_
*766 _0720_
*767 _0721_
*768 _0722_
*769 _0723_
*770 _0724_
*771 _0725_
*772 _0726_
*773 _0727_
*774 _0728_
*775 _0729_
*776 _0730_
*777 _0731_
*778 _0732_
*779 _0733_
*780 _0734_
*781 _0735_
*782 _0736_
*783 _0737_
*784 _0738_
*785 _0739_
*786 _0740_
*787 _0741_
*788 _0742_
*789 _0743_
*790 _0744_
*791 _0745_
*792 _0746_
*793 _0747_
*794 _0748_
*795 _0749_
*796 _0750_
*797 _0751_
*798 _0752_
*799 _0753_
*800 _0754_
*801 _0755_
*802 _0756_
*803 _0757_
*804 _0758_
*805 _0759_
*806 _0760_
*807 _0761_
*808 _0762_
*809 _0763_
*810 _0764_
*811 _0765_
*812 _0766_
*813 _0767_
*814 _0768_
*815 _0769_
*816 _0770_
*817 _0771_
*818 _0772_
*819 _0773_
*820 _0774_
*821 _0775_
*822 _0776_
*823 _0777_
*824 _0778_
*825 _0779_
*826 _0780_
*827 _0781_
*828 _0782_
*829 _0783_
*830 _0784_
*831 _0785_
*832 _0786_
*833 _0787_
*834 _0788_
*835 _0789_
*836 _0790_
*837 _0791_
*838 _0792_
*839 _0793_
*840 _0794_
*841 _0795_
*842 _0796_
*843 _0797_
*844 _0798_
*845 _0799_
*846 _0800_
*847 _0801_
*848 _0802_
*849 _0803_
*850 _0804_
*851 _0805_
*852 _0806_
*853 _0807_
*854 _0808_
*855 _0809_
*856 _0810_
*857 _0811_
*858 _0812_
*859 _0813_
*860 _0814_
*861 _0815_
*862 _0816_
*863 _0817_
*864 _0818_
*865 _0819_
*866 _0820_
*867 _0821_
*868 _0822_
*869 _0823_
*870 _0824_
*871 _0825_
*872 _0826_
*873 _0827_
*874 _0828_
*875 _0829_
*876 _0830_
*877 _0831_
*878 _0832_
*879 _0833_
*880 _0834_
*881 _0835_
*882 _0836_
*883 _0837_
*884 _0838_
*885 _0839_
*886 _0840_
*887 _0841_
*888 _0842_
*889 _0843_
*890 _0844_
*891 _0845_
*892 _0846_
*893 _0847_
*894 _0848_
*895 _0849_
*896 _0850_
*897 _0851_
*898 _0852_
*899 _0853_
*900 _0854_
*901 _0855_
*902 _0856_
*903 _0857_
*904 _0858_
*905 _0859_
*906 _0860_
*907 _0861_
*908 _0862_
*909 _0863_
*910 _0864_
*911 _0865_
*912 _0866_
*913 _0867_
*914 _0868_
*915 _0869_
*916 _0870_
*917 _0871_
*918 _0872_
*919 _0873_
*920 _0874_
*921 _0875_
*922 _0876_
*923 _0877_
*924 _0878_
*925 _0879_
*926 _0880_
*927 _0881_
*928 _0882_
*929 _0883_
*930 _0884_
*931 _0885_
*932 _0886_
*933 _0887_
*934 _0888_
*935 _0889_
*936 _0890_
*937 _0891_
*938 _0892_
*939 _0893_
*940 _0894_
*941 _0895_
*942 _0896_
*943 _0897_
*944 _0898_
*945 _0899_
*946 _0900_
*947 _0901_
*948 _0902_
*949 _0903_
*950 _0904_
*951 _0905_
*952 _0906_
*953 _0907_
*954 _0908_
*955 _0909_
*956 _0910_
*957 _0911_
*958 _0912_
*959 _0913_
*960 _0914_
*961 _0915_
*962 _0916_
*963 _0917_
*964 _0918_
*965 _0919_
*966 _0920_
*967 _0921_
*968 _0922_
*969 _0923_
*970 _0924_
*971 _0925_
*972 _0926_
*973 _0927_
*974 _0928_
*975 _0929_
*976 _0930_
*977 _0931_
*978 _0932_
*979 _0933_
*980 _0934_
*981 _0935_
*982 _0936_
*983 _0937_
*984 _0938_
*985 _0939_
*986 _0940_
*987 _0941_
*988 _0942_
*989 _0943_
*990 _0944_
*991 _0945_
*992 _0946_
*993 _0947_
*994 _0948_
*995 _0949_
*996 _0950_
*997 _0951_
*998 _0952_
*999 _0953_
*1000 _0954_
*1001 _0955_
*1002 _0956_
*1003 _0957_
*1004 _0958_
*1005 _0959_
*1006 _0960_
*1007 _0961_
*1008 _0962_
*1009 _0963_
*1010 _0964_
*1011 _0965_
*1012 _0966_
*1013 _0967_
*1014 _0968_
*1015 _0969_
*1016 _0970_
*1017 _0971_
*1018 _0972_
*1019 _0973_
*1020 _0974_
*1021 _0975_
*1022 _0976_
*1023 _0977_
*1024 _0978_
*1025 _0979_
*1026 _0980_
*1027 _0981_
*1028 _0982_
*1029 _0983_
*1030 _0984_
*1031 _0985_
*1032 _0986_
*1033 _0987_
*1034 _0988_
*1035 _0989_
*1036 _0990_
*1037 _0991_
*1038 _0992_
*1039 _0993_
*1040 _0994_
*1041 _0995_
*1042 _0996_
*1043 _0997_
*1044 _0998_
*1045 _0999_
*1046 _1000_
*1047 _1001_
*1048 _1002_
*1049 _1003_
*1050 _1004_
*1051 _1005_
*1052 _1006_
*1053 _1007_
*1054 _1008_
*1055 _1009_
*1056 _1010_
*1057 _1011_
*1058 _1012_
*1059 _1013_
*1060 _1014_
*1061 _1015_
*1062 _1016_
*1063 _1017_
*1064 _1018_
*1065 _1019_
*1066 _1020_
*1067 _1021_
*1068 _1022_
*1069 _1023_
*1070 _1024_
*1071 _1025_
*1072 _1026_
*1073 _1027_
*1074 _1028_
*1075 _1029_
*1076 _1030_
*1077 _1031_
*1078 _1032_
*1079 _1033_
*1080 _1034_
*1081 _1035_
*1082 _1036_
*1083 _1037_
*1084 _1038_
*1085 _1039_
*1086 _1040_
*1087 _1041_
*1088 _1042_
*1089 _1043_
*1090 _1044_
*1091 _1045_
*1092 _1046_
*1093 _1047_
*1094 _1048_
*1095 _1049_
*1096 _1050_
*1097 _1051_
*1098 _1052_
*1099 _1053_
*1100 _1054_
*1101 _1055_
*1102 _1056_
*1103 _1057_
*1104 _1058_
*1105 _1059_
*1106 _1060_
*1107 _1061_
*1108 _1062_
*1109 _1063_
*1110 _1064_
*1111 _1065_
*1112 _1066_
*1113 _1067_
*1114 _1068_
*1115 _1069_
*1116 _1070_
*1117 _1071_
*1118 _1072_
*1119 _1073_
*1120 _1074_
*1121 _1075_
*1122 _1076_
*1123 _1077_
*1124 _1078_
*1125 _1079_
*1126 _1080_
*1127 _1081_
*1128 _1082_
*1129 _1083_
*1130 _1084_
*1131 _1085_
*1132 _1086_
*1133 _1087_
*1134 _1088_
*1135 _1089_
*1136 _1090_
*1137 _1091_
*1138 _1092_
*1139 _1093_
*1140 _1094_
*1141 _1095_
*1142 _1096_
*1143 _1097_
*1144 _1098_
*1145 _1099_
*1146 _1100_
*1147 _1101_
*1148 _1102_
*1149 _1103_
*1150 _1104_
*1151 _1105_
*1152 _1106_
*1153 _1107_
*1154 _1108_
*1155 _1109_
*1156 _1110_
*1157 _1111_
*1158 _1112_
*1159 _1113_
*1160 _1114_
*1161 _1115_
*1162 _1116_
*1163 _1117_
*1164 _1118_
*1165 _1119_
*1166 _1120_
*1167 _1121_
*1168 _1122_
*1169 _1123_
*1170 _1124_
*1171 _1125_
*1172 _1126_
*1173 _1127_
*1174 _1128_
*1175 _1129_
*1176 _1130_
*1177 _1131_
*1178 _1132_
*1179 _1133_
*1180 _1134_
*1181 _1135_
*1182 _1136_
*1183 _1137_
*1184 _1138_
*1185 _1139_
*1186 _1140_
*1187 _1141_
*1188 _1142_
*1189 _1143_
*1190 _1144_
*1191 _1145_
*1192 _1146_
*1193 _1147_
*1194 _1148_
*1195 _1149_
*1196 _1150_
*1197 _1151_
*1198 _1152_
*1199 _1153_
*1200 _1154_
*1201 _1155_
*1202 _1156_
*1203 _1157_
*1204 _1158_
*1205 _1159_
*1206 _1160_
*1207 _1161_
*1208 _1162_
*1209 _1163_
*1210 _1164_
*1211 _1165_
*1212 _1166_
*1213 _1167_
*1214 _1168_
*1215 _1169_
*1216 _1170_
*1217 _1171_
*1218 _1172_
*1219 _1173_
*1220 _1174_
*1221 _1175_
*1222 _1176_
*1223 _1177_
*1224 _1178_
*1225 _1179_
*1226 _1180_
*1227 _1181_
*1228 _1182_
*1229 _1183_
*1230 _1184_
*1231 _1185_
*1232 _1186_
*1233 _1187_
*1234 _1188_
*1235 _1189_
*1236 _1190_
*1237 _1191_
*1238 _1192_
*1239 _1193_
*1240 _1194_
*1241 _1195_
*1242 _1196_
*1243 _1197_
*1244 _1198_
*1245 _1199_
*1246 _1200_
*1247 _1201_
*1248 _1202_
*1249 _1203_
*1250 _1204_
*1251 _1205_
*1252 _1206_
*1253 _1207_
*1254 _1208_
*1255 _1209_
*1256 _1210_
*1257 _1211_
*1258 _1212_
*1259 _1213_
*1260 _1214_
*1261 _1215_
*1262 _1216_
*1263 _1217_
*1264 _1218_
*1265 _1219_
*1266 _1220_
*1267 _1221_
*1268 _1222_
*1269 _1223_
*1270 _1224_
*1271 _1225_
*1272 _1226_
*1273 _1227_
*1274 _1228_
*1275 _1229_
*1276 _1230_
*1277 _1231_
*1278 _1232_
*1279 _1233_
*1280 _1234_
*1281 _1235_
*1282 _1236_
*1283 _1237_
*1284 _1238_
*1285 _1239_
*1286 _1240_
*1287 _1241_
*1288 _1242_
*1289 _1243_
*1290 _1244_
*1291 _1245_
*1292 _1246_
*1293 _1247_
*1294 _1248_
*1295 _1249_
*1296 _1250_
*1297 _1251_
*1298 _1252_
*1299 _1253_
*1300 _1254_
*1301 _1255_
*1302 _1256_
*1303 _1257_
*1304 _1258_
*1305 _1259_
*1306 _1260_
*1307 _1261_
*1308 _1262_
*1309 _1263_
*1310 _1264_
*1311 _1265_
*1312 _1266_
*1313 _1267_
*1314 _1268_
*1315 _1269_
*1316 _1270_
*1317 _1271_
*1318 _1272_
*1319 _1273_
*1320 _1274_
*1321 _1275_
*1322 _1276_
*1323 _1277_
*1324 _1278_
*1325 _1279_
*1326 _1280_
*1327 _1281_
*1328 _1282_
*1329 _1283_
*1330 _1284_
*1331 _1285_
*1332 _1286_
*1333 _1287_
*1334 _1288_
*1335 _1289_
*1336 _1290_
*1337 _1291_
*1338 _1292_
*1339 _1293_
*1340 _1294_
*1341 _1295_
*1342 _1296_
*1343 _1297_
*1344 _1298_
*1345 _1299_
*1346 _1300_
*1347 _1301_
*1348 _1302_
*1349 _1303_
*1350 _1304_
*1351 _1305_
*1352 _1306_
*1353 _1307_
*1354 _1308_
*1355 _1309_
*1356 _1310_
*1357 _1311_
*1358 _1312_
*1359 _1313_
*1360 _1314_
*1361 _1315_
*1362 _1316_
*1363 _1317_
*1364 _1318_
*1365 _1319_
*1366 _1320_
*1367 _1321_
*1368 _1322_
*1369 _1323_
*1370 _1324_
*1371 _1325_
*1372 _1326_
*1373 _1327_
*1374 _1328_
*1375 _1329_
*1376 _1330_
*1377 _1331_
*1378 _1332_
*1379 _1333_
*1380 _1334_
*1381 _1335_
*1382 _1336_
*1383 _1337_
*1384 _1338_
*1385 _1339_
*1386 _1340_
*1387 _1341_
*1388 _1342_
*1389 _1343_
*1390 _1344_
*1391 _1345_
*1392 _1346_
*1393 _1347_
*1394 _1348_
*1395 _1349_
*1396 _1350_
*1397 _1351_
*1398 _1352_
*1399 _1353_
*1400 _1354_
*1401 _1355_
*1402 _1356_
*1403 _1357_
*1404 _1358_
*1405 _1359_
*1406 activevideo_q
*1407 addr\[0\]
*1408 addr\[10\]
*1409 addr\[11\]
*1410 addr\[12\]
*1411 addr\[13\]
*1412 addr\[14\]
*1413 addr\[15\]
*1414 addr\[16\]
*1415 addr\[17\]
*1416 addr\[18\]
*1417 addr\[19\]
*1418 addr\[1\]
*1419 addr\[20\]
*1420 addr\[21\]
*1421 addr\[22\]
*1422 addr\[23\]
*1423 addr\[2\]
*1424 addr\[3\]
*1425 addr\[4\]
*1426 addr\[5\]
*1427 addr\[6\]
*1428 addr\[7\]
*1429 addr\[8\]
*1430 addr\[9\]
*1431 cache_done
*1432 cache_row\[0\]
*1433 cache_row\[100\]
*1434 cache_row\[101\]
*1435 cache_row\[102\]
*1436 cache_row\[103\]
*1437 cache_row\[104\]
*1438 cache_row\[105\]
*1439 cache_row\[106\]
*1440 cache_row\[107\]
*1441 cache_row\[108\]
*1442 cache_row\[109\]
*1443 cache_row\[10\]
*1444 cache_row\[110\]
*1445 cache_row\[111\]
*1446 cache_row\[112\]
*1447 cache_row\[113\]
*1448 cache_row\[114\]
*1449 cache_row\[115\]
*1450 cache_row\[116\]
*1451 cache_row\[117\]
*1452 cache_row\[118\]
*1453 cache_row\[119\]
*1454 cache_row\[11\]
*1455 cache_row\[120\]
*1456 cache_row\[121\]
*1457 cache_row\[122\]
*1458 cache_row\[123\]
*1459 cache_row\[124\]
*1460 cache_row\[125\]
*1461 cache_row\[126\]
*1462 cache_row\[127\]
*1463 cache_row\[12\]
*1464 cache_row\[13\]
*1465 cache_row\[14\]
*1466 cache_row\[15\]
*1467 cache_row\[16\]
*1468 cache_row\[17\]
*1469 cache_row\[18\]
*1470 cache_row\[19\]
*1471 cache_row\[1\]
*1472 cache_row\[20\]
*1473 cache_row\[21\]
*1474 cache_row\[22\]
*1475 cache_row\[23\]
*1476 cache_row\[24\]
*1477 cache_row\[25\]
*1478 cache_row\[26\]
*1479 cache_row\[27\]
*1480 cache_row\[28\]
*1481 cache_row\[29\]
*1482 cache_row\[2\]
*1483 cache_row\[30\]
*1484 cache_row\[31\]
*1485 cache_row\[32\]
*1486 cache_row\[33\]
*1487 cache_row\[34\]
*1488 cache_row\[35\]
*1489 cache_row\[36\]
*1490 cache_row\[37\]
*1491 cache_row\[38\]
*1492 cache_row\[39\]
*1493 cache_row\[3\]
*1494 cache_row\[40\]
*1495 cache_row\[41\]
*1496 cache_row\[42\]
*1497 cache_row\[43\]
*1498 cache_row\[44\]
*1499 cache_row\[45\]
*1500 cache_row\[46\]
*1501 cache_row\[47\]
*1502 cache_row\[48\]
*1503 cache_row\[49\]
*1504 cache_row\[4\]
*1505 cache_row\[50\]
*1506 cache_row\[51\]
*1507 cache_row\[52\]
*1508 cache_row\[53\]
*1509 cache_row\[54\]
*1510 cache_row\[55\]
*1511 cache_row\[56\]
*1512 cache_row\[57\]
*1513 cache_row\[58\]
*1514 cache_row\[59\]
*1515 cache_row\[5\]
*1516 cache_row\[60\]
*1517 cache_row\[61\]
*1518 cache_row\[62\]
*1519 cache_row\[63\]
*1520 cache_row\[64\]
*1521 cache_row\[65\]
*1522 cache_row\[66\]
*1523 cache_row\[67\]
*1524 cache_row\[68\]
*1525 cache_row\[69\]
*1526 cache_row\[6\]
*1527 cache_row\[70\]
*1528 cache_row\[71\]
*1529 cache_row\[72\]
*1530 cache_row\[73\]
*1531 cache_row\[74\]
*1532 cache_row\[75\]
*1533 cache_row\[76\]
*1534 cache_row\[77\]
*1535 cache_row\[78\]
*1536 cache_row\[79\]
*1537 cache_row\[7\]
*1538 cache_row\[80\]
*1539 cache_row\[81\]
*1540 cache_row\[82\]
*1541 cache_row\[83\]
*1542 cache_row\[84\]
*1543 cache_row\[85\]
*1544 cache_row\[86\]
*1545 cache_row\[87\]
*1546 cache_row\[88\]
*1547 cache_row\[89\]
*1548 cache_row\[8\]
*1549 cache_row\[90\]
*1550 cache_row\[91\]
*1551 cache_row\[92\]
*1552 cache_row\[93\]
*1553 cache_row\[94\]
*1554 cache_row\[95\]
*1555 cache_row\[96\]
*1556 cache_row\[97\]
*1557 cache_row\[98\]
*1558 cache_row\[99\]
*1559 cache_row\[9\]
*1560 clknet_0_clk
*1561 clknet_2_0__leaf_clk
*1562 clknet_2_1__leaf_clk
*1563 clknet_2_2__leaf_clk
*1564 clknet_2_3__leaf_clk
*1565 clknet_leaf_0_clk
*1566 clknet_leaf_10_clk
*1567 clknet_leaf_11_clk
*1568 clknet_leaf_12_clk
*1569 clknet_leaf_13_clk
*1570 clknet_leaf_14_clk
*1571 clknet_leaf_15_clk
*1572 clknet_leaf_16_clk
*1573 clknet_leaf_17_clk
*1574 clknet_leaf_18_clk
*1575 clknet_leaf_19_clk
*1576 clknet_leaf_1_clk
*1577 clknet_leaf_20_clk
*1578 clknet_leaf_21_clk
*1579 clknet_leaf_22_clk
*1580 clknet_leaf_23_clk
*1581 clknet_leaf_24_clk
*1582 clknet_leaf_25_clk
*1583 clknet_leaf_26_clk
*1584 clknet_leaf_27_clk
*1585 clknet_leaf_28_clk
*1586 clknet_leaf_2_clk
*1587 clknet_leaf_3_clk
*1588 clknet_leaf_4_clk
*1589 clknet_leaf_5_clk
*1590 clknet_leaf_6_clk
*1591 clknet_leaf_7_clk
*1592 clknet_leaf_8_clk
*1593 clknet_leaf_9_clk
*1594 counter_pwm\[0\]
*1595 counter_pwm\[1\]
*1596 counter_pwm\[2\]
*1597 counter_pwm\[3\]
*1598 counter_pwm\[4\]
*1599 counter_pwm\[5\]
*1600 counter_pwm\[6\]
*1601 counter_pwm\[7\]
*1602 data_row\[0\]
*1603 data_row\[10\]
*1604 data_row\[11\]
*1605 data_row\[12\]
*1606 data_row\[13\]
*1607 data_row\[14\]
*1608 data_row\[15\]
*1609 data_row\[16\]
*1610 data_row\[17\]
*1611 data_row\[18\]
*1612 data_row\[19\]
*1613 data_row\[1\]
*1614 data_row\[20\]
*1615 data_row\[21\]
*1616 data_row\[22\]
*1617 data_row\[23\]
*1618 data_row\[24\]
*1619 data_row\[25\]
*1620 data_row\[26\]
*1621 data_row\[27\]
*1622 data_row\[28\]
*1623 data_row\[29\]
*1624 data_row\[2\]
*1625 data_row\[30\]
*1626 data_row\[31\]
*1627 data_row\[32\]
*1628 data_row\[33\]
*1629 data_row\[34\]
*1630 data_row\[35\]
*1631 data_row\[36\]
*1632 data_row\[37\]
*1633 data_row\[38\]
*1634 data_row\[39\]
*1635 data_row\[3\]
*1636 data_row\[40\]
*1637 data_row\[41\]
*1638 data_row\[42\]
*1639 data_row\[43\]
*1640 data_row\[44\]
*1641 data_row\[45\]
*1642 data_row\[46\]
*1643 data_row\[47\]
*1644 data_row\[48\]
*1645 data_row\[49\]
*1646 data_row\[4\]
*1647 data_row\[50\]
*1648 data_row\[51\]
*1649 data_row\[52\]
*1650 data_row\[53\]
*1651 data_row\[54\]
*1652 data_row\[55\]
*1653 data_row\[56\]
*1654 data_row\[57\]
*1655 data_row\[58\]
*1656 data_row\[59\]
*1657 data_row\[5\]
*1658 data_row\[60\]
*1659 data_row\[61\]
*1660 data_row\[62\]
*1661 data_row\[63\]
*1662 data_row\[64\]
*1663 data_row\[65\]
*1664 data_row\[66\]
*1665 data_row\[67\]
*1666 data_row\[68\]
*1667 data_row\[69\]
*1668 data_row\[6\]
*1669 data_row\[70\]
*1670 data_row\[71\]
*1671 data_row\[72\]
*1672 data_row\[73\]
*1673 data_row\[74\]
*1674 data_row\[75\]
*1675 data_row\[76\]
*1676 data_row\[77\]
*1677 data_row\[78\]
*1678 data_row\[79\]
*1679 data_row\[7\]
*1680 data_row\[8\]
*1681 data_row\[9\]
*1682 frame_iter\[0\]
*1683 frame_iter\[1\]
*1684 hsync_q
*1685 n_frame\[0\]
*1686 n_frame\[10\]
*1687 n_frame\[11\]
*1688 n_frame\[12\]
*1689 n_frame\[13\]
*1690 n_frame\[14\]
*1691 n_frame\[15\]
*1692 n_frame\[1\]
*1693 n_frame\[2\]
*1694 n_frame\[3\]
*1695 n_frame\[4\]
*1696 n_frame\[5\]
*1697 n_frame\[6\]
*1698 n_frame\[7\]
*1699 n_frame\[8\]
*1700 n_frame\[9\]
*1701 net1
*1702 net10
*1703 net100
*1704 net101
*1705 net102
*1706 net103
*1707 net104
*1708 net105
*1709 net106
*1710 net107
*1711 net108
*1712 net109
*1713 net11
*1714 net110
*1715 net111
*1716 net112
*1717 net113
*1718 net114
*1719 net115
*1720 net116
*1721 net117
*1722 net118
*1723 net119
*1724 net12
*1725 net120
*1726 net121
*1727 net122
*1728 net123
*1729 net124
*1730 net125
*1731 net126
*1732 net127
*1733 net128
*1734 net129
*1735 net13
*1736 net130
*1737 net131
*1738 net132
*1739 net133
*1740 net134
*1741 net135
*1742 net136
*1743 net137
*1744 net138
*1745 net139
*1746 net14
*1747 net140
*1748 net141
*1749 net142
*1750 net143
*1751 net144
*1752 net145
*1753 net146
*1754 net147
*1755 net148
*1756 net149
*1757 net15
*1758 net150
*1759 net151
*1760 net152
*1761 net153
*1762 net154
*1763 net155
*1764 net156
*1765 net157
*1766 net158
*1767 net159
*1768 net16
*1769 net160
*1770 net161
*1771 net162
*1772 net163
*1773 net164
*1774 net165
*1775 net166
*1776 net167
*1777 net168
*1778 net169
*1779 net17
*1780 net170
*1781 net171
*1782 net172
*1783 net173
*1784 net174
*1785 net175
*1786 net176
*1787 net177
*1788 net178
*1789 net179
*1790 net18
*1791 net180
*1792 net181
*1793 net182
*1794 net183
*1795 net184
*1796 net185
*1797 net186
*1798 net187
*1799 net188
*1800 net189
*1801 net190
*1802 net191
*1803 net192
*1804 net193
*1805 net194
*1806 net195
*1807 net196
*1808 net197
*1809 net198
*1810 net199
*1811 net2
*1812 net200
*1813 net201
*1814 net202
*1815 net203
*1816 net204
*1817 net205
*1818 net206
*1819 net207
*1820 net208
*1821 net209
*1822 net210
*1823 net211
*1824 net212
*1825 net213
*1826 net214
*1827 net215
*1828 net216
*1829 net217
*1830 net218
*1831 net219
*1832 net220
*1833 net221
*1834 net222
*1835 net223
*1836 net224
*1837 net225
*1838 net226
*1839 net227
*1840 net228
*1841 net229
*1842 net230
*1843 net231
*1844 net232
*1845 net233
*1846 net234
*1847 net235
*1848 net236
*1849 net237
*1850 net238
*1851 net239
*1852 net24
*1853 net240
*1854 net241
*1855 net242
*1856 net243
*1857 net244
*1858 net245
*1859 net246
*1860 net247
*1861 net248
*1862 net249
*1863 net25
*1864 net250
*1865 net251
*1866 net252
*1867 net253
*1868 net254
*1869 net255
*1870 net256
*1871 net257
*1872 net258
*1873 net259
*1874 net26
*1875 net260
*1876 net261
*1877 net262
*1878 net263
*1879 net264
*1880 net265
*1881 net266
*1882 net267
*1883 net268
*1884 net269
*1885 net27
*1886 net270
*1887 net271
*1888 net272
*1889 net273
*1890 net274
*1891 net275
*1892 net276
*1893 net277
*1894 net278
*1895 net279
*1896 net28
*1897 net280
*1898 net281
*1899 net282
*1900 net283
*1901 net284
*1902 net285
*1903 net286
*1904 net287
*1905 net288
*1906 net289
*1907 net29
*1908 net290
*1909 net291
*1910 net292
*1911 net293
*1912 net294
*1913 net295
*1914 net296
*1915 net297
*1916 net298
*1917 net299
*1918 net3
*1919 net30
*1920 net300
*1921 net301
*1922 net302
*1923 net303
*1924 net304
*1925 net305
*1926 net306
*1927 net307
*1928 net308
*1929 net309
*1930 net31
*1931 net310
*1932 net311
*1933 net312
*1934 net313
*1935 net314
*1936 net315
*1937 net316
*1938 net317
*1939 net318
*1940 net319
*1941 net32
*1942 net320
*1943 net321
*1944 net322
*1945 net323
*1946 net324
*1947 net325
*1948 net326
*1949 net327
*1950 net328
*1951 net329
*1952 net33
*1953 net330
*1954 net331
*1955 net332
*1956 net333
*1957 net334
*1958 net335
*1959 net336
*1960 net337
*1961 net338
*1962 net339
*1963 net34
*1964 net340
*1965 net341
*1966 net342
*1967 net343
*1968 net344
*1969 net345
*1970 net346
*1971 net347
*1972 net348
*1973 net349
*1974 net35
*1975 net36
*1976 net37
*1977 net38
*1978 net39
*1979 net4
*1980 net40
*1981 net41
*1982 net42
*1983 net43
*1984 net44
*1985 net45
*1986 net46
*1987 net47
*1988 net48
*1989 net49
*1990 net5
*1991 net50
*1992 net51
*1993 net52
*1994 net53
*1995 net54
*1996 net55
*1997 net56
*1998 net57
*1999 net58
*2000 net59
*2001 net6
*2002 net60
*2003 net61
*2004 net62
*2005 net63
*2006 net64
*2007 net65
*2008 net66
*2009 net67
*2010 net68
*2011 net69
*2012 net7
*2013 net70
*2014 net71
*2015 net72
*2016 net73
*2017 net74
*2018 net75
*2019 net76
*2020 net77
*2021 net78
*2022 net79
*2023 net8
*2024 net80
*2025 net81
*2026 net82
*2027 net83
*2028 net84
*2029 net85
*2030 net86
*2031 net87
*2032 net88
*2033 net89
*2034 net9
*2035 net90
*2036 net91
*2037 net92
*2038 net93
*2039 net94
*2040 net95
*2041 net96
*2042 net97
*2043 net98
*2044 net99
*2045 overflow
*2046 pcm_0_aux
*2047 sound_block_pcm\[0\]
*2048 sound_block_pcm\[1\]
*2049 sound_block_pcm\[2\]
*2050 sound_block_pcm\[3\]
*2051 sound_n_pcm
*2052 sound_n_pwm
*2053 sound_p_pcm
*2054 sound_p_pwm
*2055 sound_reg\[0\]
*2056 sound_reg\[10\]
*2057 sound_reg\[11\]
*2058 sound_reg\[12\]
*2059 sound_reg\[13\]
*2060 sound_reg\[14\]
*2061 sound_reg\[15\]
*2062 sound_reg\[1\]
*2063 sound_reg\[2\]
*2064 sound_reg\[3\]
*2065 sound_reg\[4\]
*2066 sound_reg\[5\]
*2067 sound_reg\[6\]
*2068 sound_reg\[7\]
*2069 sound_reg\[8\]
*2070 sound_reg\[9\]
*2071 spi_addr_n\[0\]
*2072 spi_addr_n\[1\]
*2073 spi_addr_n\[2\]
*2074 spi_addr_n\[3\]
*2075 spi_addr_n\[4\]
*2076 spi_addr_n\[5\]
*2077 spi_addr_n\[6\]
*2078 spi_addr_on
*2079 spi_clk
*2080 spi_clk_on
*2081 spi_cmd_n\[0\]
*2082 spi_cmd_n\[1\]
*2083 spi_cmd_n\[2\]
*2084 spi_cmd_n\[3\]
*2085 spi_cmd_on
*2086 spi_dummy_n\[0\]
*2087 spi_dummy_n\[1\]
*2088 spi_dummy_n\[2\]
*2089 spi_dummy_n\[3\]
*2090 spi_dummy_on
*2091 spi_oe
*2092 spi_read_n\[0\]
*2093 spi_read_n\[1\]
*2094 spi_read_n\[2\]
*2095 spi_read_n\[3\]
*2096 spi_read_n\[4\]
*2097 spi_read_n\[5\]
*2098 spi_read_on
*2099 spi_sel
*2100 spi_sel_on
*2101 threshold_pwm\[0\]
*2102 threshold_pwm\[1\]
*2103 threshold_pwm\[2\]
*2104 threshold_pwm\[3\]
*2105 threshold_pwm\[4\]
*2106 threshold_pwm\[5\]
*2107 threshold_pwm\[6\]
*2108 threshold_pwm\[7\]
*2109 v_block_q\[0\]
*2110 v_block_q\[1\]
*2111 v_block_q\[2\]
*2112 v_block_q\[3\]
*2113 v_block_q\[4\]
*2114 v_block_q\[5\]
*2115 v_block_q\[6\]
*2116 vga_0\.activevideo
*2117 vga_0\.data_done
*2118 vga_0\.hc\[0\]
*2119 vga_0\.hc\[1\]
*2120 vga_0\.hc\[2\]
*2121 vga_0\.hc\[3\]
*2122 vga_0\.hc\[4\]
*2123 vga_0\.hc\[5\]
*2124 vga_0\.hc\[6\]