*SPEF "ieee 1481-1999"
*DESIGN "tt_um_vzayakov_top"
*DATE "19:56:07 Saturday June 01, 2024"
*VENDOR "The OpenROAD Project"
*PROGRAM "OpenROAD"
*VERSION "da0053d7b0014ab9c87ea148875ff6c2a0f9b658"
*DESIGN_FLOW "NAME_SCOPE LOCAL" "PIN_CAP NONE"
*DIVIDER /
*DELIMITER :
*BUS_DELIMITER []
*T_UNIT 1 NS
*C_UNIT 1 PF
*R_UNIT 1 OHM
*L_UNIT 1 HENRY

*NAME_MAP
*3 clk
*4 ena
*5 rst_n
*6 ui_in[0]
*7 ui_in[1]
*8 ui_in[2]
*9 ui_in[3]
*10 ui_in[4]
*11 ui_in[5]
*12 ui_in[6]
*13 ui_in[7]
*14 uio_in[0]
*15 uio_in[1]
*16 uio_in[2]
*17 uio_in[3]
*18 uio_in[4]
*19 uio_in[5]
*20 uio_in[6]
*21 uio_in[7]
*22 net9
*23 net10
*24 net11
*25 net12
*26 net13
*27 net14
*28 net15
*29 net16
*30 net17
*31 net18
*32 net19
*33 net20
*34 net21
*35 net22
*36 net23
*37 net24
*38 uo_out[0]
*39 uo_out[1]
*40 net25
*41 uo_out[3]
*42 uo_out[4]
*43 uo_out[5]
*44 uo_out[6]
*45 uo_out[7]
*46 DUT\.HEX0\[0\]
*47 DUT\.HEX0\[1\]
*48 DUT\.HEX0\[2\]
*49 DUT\.HEX0\[3\]
*50 DUT\.HEX0\[4\]
*51 DUT\.HEX0\[5\]
*52 DUT\.HEX0\[6\]
*53 DUT\.HEX1\[0\]
*54 DUT\.HEX1\[1\]
*55 DUT\.HEX1\[2\]
*56 DUT\.HEX1\[3\]
*57 DUT\.HEX1\[4\]
*58 DUT\.HEX1\[5\]
*59 DUT\.HEX1\[6\]
*60 DUT\.HEX2\[0\]
*61 DUT\.HEX2\[1\]
*62 DUT\.HEX2\[2\]
*63 DUT\.HEX2\[3\]
*64 DUT\.HEX2\[4\]
*65 DUT\.HEX2\[5\]
*66 DUT\.HEX2\[6\]
*67 DUT\.HEX3\[0\]
*68 DUT\.HEX3\[1\]
*69 DUT\.HEX3\[2\]
*70 DUT\.HEX3\[3\]
*71 DUT\.HEX3\[4\]
*72 DUT\.HEX3\[5\]
*73 DUT\.HEX3\[6\]
*74 DUT\.HEX4\[0\]
*75 DUT\.HEX4\[1\]
*76 DUT\.HEX4\[2\]
*77 DUT\.HEX4\[3\]
*78 DUT\.HEX4\[4\]
*79 DUT\.HEX4\[5\]
*80 DUT\.HEX4\[6\]
*81 DUT\.HEX5\[0\]
*82 DUT\.HEX5\[1\]
*83 DUT\.HEX5\[2\]
*84 DUT\.HEX5\[3\]
*85 DUT\.HEX5\[4\]
*86 DUT\.HEX5\[5\]
*87 DUT\.HEX5\[6\]
*88 DUT\.HEX6\[0\]
*89 DUT\.HEX6\[1\]
*90 DUT\.HEX6\[2\]
*91 DUT\.HEX6\[3\]
*92 DUT\.HEX6\[4\]
*93 DUT\.HEX6\[5\]
*94 DUT\.HEX6\[6\]
*95 DUT\.HEX7\[0\]
*96 DUT\.HEX7\[1\]
*97 DUT\.HEX7\[2\]
*98 DUT\.HEX7\[3\]
*99 DUT\.HEX7\[4\]
*100 DUT\.HEX7\[5\]
*101 DUT\.HEX7\[6\]
*102 DUT\.HS
*103 DUT\.L1\[0\]
*104 DUT\.L1\[1\]
*105 DUT\.L1\[2\]
*106 DUT\.L1\[3\]
*107 DUT\.L2\[0\]
*108 DUT\.L2\[1\]
*109 DUT\.L2\[2\]
*110 DUT\.L2\[3\]
*111 DUT\.L3\[0\]
*112 DUT\.L3\[1\]
*113 DUT\.L3\[2\]
*114 DUT\.L3\[3\]
*115 DUT\.L4\[0\]
*116 DUT\.L4\[1\]
*117 DUT\.L4\[2\]
*118 DUT\.L4\[3\]
*119 DUT\.LPad_row\[0\]
*120 DUT\.LPad_row\[1\]
*121 DUT\.LPad_row\[2\]
*122 DUT\.LPad_row\[3\]
*123 DUT\.LPad_row\[4\]
*124 DUT\.LPad_row\[5\]
*125 DUT\.LPad_row\[6\]
*126 DUT\.LPad_row\[7\]
*127 DUT\.LPad_row\[8\]
*128 DUT\.L_move
*129 DUT\.L_up
*130 DUT\.Q_BC\[1\]
*131 DUT\.Q_BC\[2\]
*132 DUT\.Q_BC\[3\]
*133 DUT\.Q_BC\[4\]
*134 DUT\.Q_BC\[5\]
*135 DUT\.Q_BC\[6\]
*136 DUT\.Q_BC\[7\]
*137 DUT\.Q_BC\[8\]
*138 DUT\.Q_BC\[9\]
*139 DUT\.Q_BR\[0\]
*140 DUT\.Q_BR\[1\]
*141 DUT\.Q_BR\[2\]
*142 DUT\.Q_BR\[3\]
*143 DUT\.Q_BR\[4\]
*144 DUT\.Q_BR\[5\]
*145 DUT\.Q_BR\[6\]
*146 DUT\.Q_BR\[7\]
*147 DUT\.Q_BR\[8\]
*148 DUT\.R1\[0\]
*149 DUT\.R1\[1\]
*150 DUT\.R1\[2\]
*151 DUT\.R1\[3\]
*152 DUT\.R2\[0\]
*153 DUT\.R2\[1\]
*154 DUT\.R2\[2\]
*155 DUT\.R2\[3\]
*156 DUT\.R3\[0\]
*157 DUT\.R3\[1\]
*158 DUT\.R3\[2\]
*159 DUT\.R3\[3\]
*160 DUT\.R4\[0\]
*161 DUT\.R4\[1\]
*162 DUT\.R4\[2\]
*163 DUT\.R4\[3\]
*164 DUT\.RPad_row\[0\]
*165 DUT\.RPad_row\[1\]
*166 DUT\.RPad_row\[2\]
*167 DUT\.RPad_row\[3\]
*168 DUT\.RPad_row\[4\]
*169 DUT\.RPad_row\[5\]
*170 DUT\.RPad_row\[6\]
*171 DUT\.RPad_row\[7\]
*172 DUT\.RPad_row\[8\]
*173 DUT\.R_move
*174 DUT\.R_up
*175 DUT\.VGA_B
*176 DUT\.VGA_G
*177 DUT\.VGA_R
*178 DUT\.VS
*179 DUT\.b\.MuxLeft\.S
*180 DUT\.b\.MuxUp\.S
*181 DUT\.c\.BallCol\.full_val\[0\]
*182 DUT\.c\.BallCol\.full_val\[1\]
*183 DUT\.c\.BallCol\.full_val\[2\]
*184 DUT\.c\.BallCol\.full_val\[3\]
*185 DUT\.c\.BallCol\.full_val\[4\]
*186 DUT\.c\.BallCol\.full_val\[5\]
*187 DUT\.c\.BallCol\.full_val\[6\]
*188 DUT\.c\.BallCol\.full_val\[7\]
*189 DUT\.c\.BallCol\.full_val\[8\]
*190 DUT\.c\.BallCol\.full_val\[9\]
*191 DUT\.c\.BallRow\.full_val\[0\]
*192 DUT\.c\.BallRow\.full_val\[1\]
*193 DUT\.c\.BallRow\.full_val\[2\]
*194 DUT\.c\.BallRow\.full_val\[3\]
*195 DUT\.c\.BallRow\.full_val\[4\]
*196 DUT\.c\.BallRow\.full_val\[5\]
*197 DUT\.c\.BallRow\.full_val\[6\]
*198 DUT\.c\.BallRow\.full_val\[7\]
*199 DUT\.c\.BallRow\.full_val\[8\]
*200 DUT\.pfsm\.dff0\.Q
*201 DUT\.pfsm\.dff1\.Q
*202 DUT\.pfsm\.dff2\.Q
*203 DUT\.pfsm\.dff3\.Q
*204 DUT\.pfsm\.serve_L
*205 DUT\.sync1\.async_1
*206 DUT\.sync2\.async_1
*207 DUT\.sync3\.async_1
*208 DUT\.sync4\.async_1
*209 DUT\.sync5\.async_1
*210 DUT\.vg\.HSCounter\.Q\[0\]
*211 DUT\.vg\.HSCounter\.Q\[10\]
*212 DUT\.vg\.HSCounter\.Q\[1\]
*213 DUT\.vg\.HSCounter\.Q\[2\]
*214 DUT\.vg\.HSCounter\.Q\[3\]
*215 DUT\.vg\.HSCounter\.Q\[4\]
*216 DUT\.vg\.HSCounter\.Q\[5\]
*217 DUT\.vg\.HSCounter\.Q\[6\]
*218 DUT\.vg\.HSCounter\.Q\[7\]
*219 DUT\.vg\.HSCounter\.Q\[8\]
*220 DUT\.vg\.HSCounter\.Q\[9\]
*221 DUT\.vg\.Q_VS\[0\]
*222 DUT\.vg\.Q_VS\[10\]
*223 DUT\.vg\.Q_VS\[11\]
*224 DUT\.vg\.Q_VS\[12\]
*225 DUT\.vg\.Q_VS\[13\]
*226 DUT\.vg\.Q_VS\[14\]
*227 DUT\.vg\.Q_VS\[15\]
*228 DUT\.vg\.Q_VS\[16\]
*229 DUT\.vg\.Q_VS\[17\]
*230 DUT\.vg\.Q_VS\[18\]
*231 DUT\.vg\.Q_VS\[19\]
*232 DUT\.vg\.Q_VS\[1\]
*233 DUT\.vg\.Q_VS\[2\]
*234 DUT\.vg\.Q_VS\[3\]
*235 DUT\.vg\.Q_VS\[4\]
*236 DUT\.vg\.Q_VS\[5\]
*237 DUT\.vg\.Q_VS\[6\]
*238 DUT\.vg\.Q_VS\[7\]
*239 DUT\.vg\.Q_VS\[8\]
*240 DUT\.vg\.Q_VS\[9\]
*241 DUT\.vg\.dff0\.Q
*242 DUT\.vg\.dff1\.Q
*243 VGA_BLANK_N
*244 _0000_
*245 _0001_
*246 _0002_
*247 _0003_
*248 _0004_
*249 _0005_
*250 _0006_
*251 _0007_
*252 _0008_
*253 _0009_
*254 _0010_
*255 _0011_
*256 _0012_
*257 _0013_
*258 _0014_
*259 _0015_
*260 _0016_
*261 _0017_
*262 _0018_
*263 _0019_
*264 _0020_
*265 _0021_
*266 _0022_
*267 _0023_
*268 _0024_
*269 _0025_
*270 _0026_
*271 _0027_
*272 _0028_
*273 _0029_
*274 _0030_
*275 _0031_
*276 _0032_
*277 _0033_
*278 _0034_
*279 _0035_
*280 _0036_
*281 _0037_
*282 _0038_
*283 _0039_
*284 _0040_
*285 _0041_
*286 _0042_
*287 _0043_
*288 _0044_
*289 _0045_
*290 _0046_
*291 _0047_
*292 _0048_
*293 _0049_
*294 _0050_
*295 _0051_
*296 _0052_
*297 _0053_
*298 _0054_
*299 _0055_
*300 _0056_
*301 _0057_
*302 _0058_
*303 _0059_
*304 _0060_
*305 _0061_
*306 _0062_
*307 _0063_
*308 _0064_
*309 _0065_
*310 _0066_
*311 _0067_
*312 _0068_
*313 _0069_
*314 _0070_
*315 _0071_
*316 _0072_
*317 _0073_
*318 _0074_
*319 _0075_
*320 _0076_
*321 _0077_
*322 _0078_
*323 _0079_
*324 _0080_
*325 _0081_
*326 _0082_
*327 _0083_
*328 _0084_
*329 _0085_
*330 _0086_
*331 _0087_
*332 _0088_
*333 _0089_
*334 _0090_
*335 _0091_
*336 _0092_
*337 _0093_
*338 _0094_
*339 _0095_
*340 _0096_
*341 _0097_
*342 _0098_
*343 _0099_
*344 _0100_
*345 _0101_
*346 _0102_
*347 _0103_
*348 _0104_
*349 _0105_
*350 _0106_
*351 _0107_
*352 _0108_
*353 _0109_
*354 _0110_
*355 _0111_
*356 _0112_
*357 _0113_
*358 _0114_
*359 _0115_
*360 _0116_
*361 _0117_
*362 _0118_
*363 _0119_
*364 _0120_
*365 _0121_
*366 _0122_
*367 _0123_
*368 _0124_
*369 _0125_
*370 _0126_
*371 _0127_
*372 _0128_
*373 _0129_
*374 _0130_
*375 _0131_
*376 _0132_
*377 _0133_
*378 _0134_
*379 _0135_
*380 _0136_
*381 _0137_
*382 _0138_
*383 _0139_
*384 _0140_
*385 _0141_
*386 _0142_
*387 _0143_
*388 _0144_
*389 _0145_
*390 _0146_
*391 _0147_
*392 _0148_
*393 _0149_
*394 _0150_
*395 _0151_
*396 _0152_
*397 _0153_
*398 _0154_
*399 _0155_
*400 _0156_
*401 _0157_
*402 _0158_
*403 _0159_
*404 _0160_
*405 _0161_
*406 _0162_
*407 _0163_
*408 _0164_
*409 _0165_
*410 _0166_
*411 _0167_
*412 _0168_
*413 _0169_
*414 _0170_
*415 _0171_
*416 _0172_
*417 _0173_
*418 _0174_
*419 _0175_
*420 _0176_
*421 _0177_
*422 _0178_
*423 _0179_
*424 _0180_
*425 _0181_
*426 _0182_
*427 _0183_
*428 _0184_
*429 _0185_
*430 _0186_
*431 _0187_
*432 _0188_
*433 _0189_
*434 _0190_
*435 _0191_
*436 _0192_
*437 _0193_
*438 _0194_
*439 _0195_
*440 _0196_
*441 _0197_
*442 _0198_
*443 _0199_
*444 _0200_
*445 _0201_
*446 _0202_
*447 _0203_
*448 _0204_
*449 _0205_
*450 _0206_
*451 _0207_
*452 _0208_
*453 _0209_
*454 _0210_
*455 _0211_
*456 _0212_
*457 _0213_
*458 _0214_
*459 _0215_
*460 _0216_
*461 _0217_
*462 _0218_
*463 _0219_
*464 _0220_
*465 _0221_
*466 _0222_
*467 _0223_
*468 _0224_
*469 _0225_
*470 _0226_
*471 _0227_
*472 _0228_
*473 _0229_
*474 _0230_
*475 _0231_
*476 _0232_
*477 _0233_
*478 _0234_
*479 _0235_
*480 _0236_
*481 _0237_
*482 _0238_
*483 _0239_
*484 _0240_
*485 _0241_
*486 _0242_
*487 _0243_
*488 _0244_
*489 _0245_
*490 _0246_
*491 _0247_
*492 _0248_
*493 _0249_
*494 _0250_
*495 _0251_
*496 _0252_
*497 _0253_
*498 _0254_
*499 _0255_
*500 _0256_
*501 _0257_
*502 _0258_
*503 _0259_
*504 _0260_
*505 _0261_
*506 _0262_
*507 _0263_
*508 _0264_
*509 _0265_
*510 _0266_
*511 _0267_
*512 _0268_
*513 _0269_
*514 _0270_
*515 _0271_
*516 _0272_
*517 _0273_
*518 _0274_
*519 _0275_
*520 _0276_
*521 _0277_
*522 _0278_
*523 _0279_
*524 _0280_
*525 _0281_
*526 _0282_
*527 _0283_
*528 _0284_
*529 _0285_
*530 _0286_
*531 _0287_
*532 _0288_
*533 _0289_
*534 _0290_
*535 _0291_
*536 _0292_
*537 _0293_
*538 _0294_
*539 _0295_
*540 _0296_
*541 _0297_
*542 _0298_
*543 _0299_
*544 _0300_
*545 _0301_
*546 _0302_
*547 _0303_
*548 _0304_
*549 _0305_
*550 _0306_
*551 _0307_
*552 _0308_
*553 _0309_
*554 _0310_
*555 _0311_
*556 _0312_
*557 _0313_
*558 _0314_
*559 _0315_
*560 _0316_
*561 _0317_
*562 _0318_
*563 _0319_
*564 _0320_
*565 _0321_
*566 _0322_
*567 _0323_
*568 _0324_
*569 _0325_
*570 _0326_
*571 _0327_
*572 _0328_
*573 _0329_
*574 _0330_
*575 _0331_
*576 _0332_
*577 _0333_
*578 _0334_
*579 _0335_
*580 _0336_
*581 _0337_
*582 _0338_
*583 _0339_
*584 _0340_
*585 _0341_
*586 _0342_
*587 _0343_
*588 _0344_
*589 _0345_
*590 _0346_
*591 _0347_
*592 _0348_
*593 _0349_
*594 _0350_
*595 _0351_
*596 _0352_
*597 _0353_
*598 _0354_
*599 _0355_
*600 _0356_
*601 _0357_
*602 _0358_
*603 _0359_
*604 _0360_
*605 _0361_
*606 _0362_
*607 _0363_
*608 _0364_
*609 _0365_
*610 _0366_
*611 _0367_
*612 _0368_
*613 _0369_
*614 _0370_
*615 _0371_
*616 _0372_
*617 _0373_
*618 _0374_
*619 _0375_
*620 _0376_
*621 _0377_
*622 _0378_
*623 _0379_
*624 _0380_
*625 _0381_
*626 _0382_
*627 _0383_
*628 _0384_
*629 _0385_
*630 _0386_
*631 _0387_
*632 _0388_
*633 _0389_
*634 _0390_
*635 _0391_
*636 _0392_
*637 _0393_
*638 _0394_
*639 _0395_
*640 _0396_
*641 _0397_
*642 _0398_
*643 _0399_
*644 _0400_
*645 _0401_
*646 _0402_
*647 _0403_
*648 _0404_
*649 _0405_
*650 _0406_
*651 _0407_
*652 _0408_
*653 _0409_
*654 _0410_
*655 _0411_
*656 _0412_
*657 _0413_
*658 _0414_
*659 _0415_
*660 _0416_
*661 _0417_
*662 _0418_
*663 _0419_
*664 _0420_
*665 _0421_
*666 _0422_
*667 _0423_
*668 _0424_
*669 _0425_
*670 _0426_
*671 _0427_
*672 _0428_
*673 _0429_
*674 _0430_
*675 _0431_
*676 _0432_
*677 _0433_
*678 _0434_
*679 _0435_
*680 _0436_
*681 _0437_
*682 _0438_
*683 _0439_
*684 _0440_
*685 _0441_
*686 _0442_
*687 _0443_
*688 _0444_
*689 _0445_
*690 _0446_
*691 _0447_
*692 _0448_
*693 _0449_
*694 _0450_
*695 _0451_
*696 _0452_
*697 _0453_
*698 _0454_
*699 _0455_
*700 _0456_
*701 _0457_
*702 _0458_
*703 _0459_
*704 _0460_
*705 _0461_
*706 _0462_
*707 _0463_
*708 _0464_
*709 _0465_
*710 _0466_
*711 _0467_
*712 _0468_
*713 _0469_
*714 _0470_
*715 _0471_
*716 _0472_
*717 _0473_
*718 _0474_
*719 _0475_
*720 _0476_
*721 _0477_
*722 _0478_
*723 _0479_
*724 _0480_
*725 _0481_
*726 _0482_
*727 _0483_
*728 _0484_
*729 _0485_
*730 _0486_
*731 _0487_
*732 _0488_
*733 _0489_
*734 _0490_
*735 _0491_
*736 _0492_
*737 _0493_
*738 _0494_
*739 _0495_
*740 _0496_
*741 _0497_
*742 _0498_
*743 _0499_
*744 _0500_
*745 _0501_
*746 _0502_
*747 _0503_
*748 _0504_
*749 _0505_
*750 _0506_
*751 _0507_
*752 _0508_
*753 _0509_
*754 _0510_
*755 _0511_
*756 _0512_
*757 _0513_
*758 _0514_
*759 _0515_
*760 _0516_
*761 _0517_
*762 _0518_
*763 _0519_
*764 _0520_
*765 _0521_
*766 _0522_
*767 _0523_
*768 _0524_
*769 _0525_
*770 _0526_
*771 _0527_
*772 _0528_
*773 _0529_
*774 _0530_
*775 _0531_
*776 _0532_
*777 _0533_
*778 _0534_
*779 _0535_
*780 _0536_
*781 _0537_
*782 _0538_
*783 _0539_
*784 _0540_
*785 _0541_
*786 _0542_
*787 _0543_
*788 _0544_
*789 _0545_
*790 _0546_
*791 _0547_
*792 _0548_
*793 _0549_
*794 _0550_
*795 _0551_
*796 _0552_
*797 _0553_
*798 _0554_
*799 _0555_
*800 _0556_
*801 _0557_
*802 _0558_
*803 _0559_
*804 _0560_
*805 _0561_
*806 _0562_
*807 _0563_
*808 _0564_
*809 _0565_
*810 _0566_
*811 _0567_
*812 _0568_
*813 _0569_
*814 _0570_
*815 _0571_
*816 _0572_
*817 _0573_
*818 _0574_
*819 _0575_
*820 _0576_
*821 _0577_
*822 _0578_
*823 _0579_
*824 _0580_
*825 _0581_
*826 _0582_
*827 _0583_
*828 _0584_
*829 _0585_
*830 _0586_
*831 _0587_
*832 _0588_
*833 _0589_
*834 _0590_
*835 _0591_
*836 _0592_
*837 _0593_
*838 _0594_
*839 _0595_
*840 _0596_
*841 _0597_
*842 _0598_
*843 _0599_
*844 _0600_
*845 _0601_
*846 _0602_
*847 _0603_
*848 _0604_
*849 _0605_
*850 _0606_
*851 _0607_
*852 _0608_
*853 _0609_
*854 _0610_
*855 _0611_
*856 _0612_
*857 _0613_
*858 _0614_
*859 _0615_
*860 _0616_
*861 _0617_
*862 _0618_
*863 _0619_
*864 _0620_
*865 _0621_
*866 _0622_
*867 _0623_
*868 _0624_
*869 _0625_
*870 _0626_
*871 _0627_
*872 _0628_
*873 _0629_
*874 _0630_
*875 _0631_
*876 _0632_
*877 _0633_
*878 _0634_
*879 _0635_
*880 _0636_
*881 _0637_
*882 _0638_
*883 _0639_
*884 _0640_
*885 _0641_
*886 _0642_
*887 _0643_
*888 _0644_
*889 _0645_
*890 _0646_
*891 _0647_
*892 _0648_
*893 _0649_
*894 _0650_
*895 _0651_
*896 _0652_
*897 _0653_
*898 _0654_
*899 _0655_
*900 _0656_
*901 _0657_
*902 _0658_
*903 _0659_
*904 _0660_
*905 _0661_
*906 _0662_
*907 _0663_
*908 _0664_
*909 _0665_
*910 _0666_
*911 _0667_
*912 _0668_
*913 _0669_
*914 _0670_
*915 _0671_
*916 _0672_
*917 _0673_
*918 _0674_
*919 _0675_
*920 _0676_
*921 _0677_
*922 _0678_
*923 _0679_
*924 _0680_
*925 _0681_
*926 _0682_
*927 _0683_
*928 _0684_
*929 _0685_
*930 _0686_
*931 _0687_
*932 _0688_
*933 _0689_
*934 _0690_
*935 _0691_
*936 _0692_
*937 _0693_
*938 _0694_
*939 _0695_
*940 _0696_
*941 _0697_
*942 _0698_
*943 _0699_
*944 _0700_
*945 _0701_
*946 _0702_
*947 _0703_
*948 _0704_
*949 _0705_
*950 _0706_
*951 _0707_
*952 _0708_
*953 _0709_
*954 _0710_
*955 _0711_
*956 _0712_
*957 _0713_
*958 _0714_
*959 _0715_
*960 _0716_
*961 _0717_
*962 _0718_
*963 _0719_
*964 _0720_
*965 _0721_
*966 _0722_
*967 _0723_
*968 _0724_
*969 _0725_
*970 _0726_
*971 _0727_
*972 _0728_
*973 _0729_
*974 _0730_
*975 _0731_
*976 _0732_
*977 _0733_
*978 _0734_
*979 _0735_
*980 _0736_
*981 _0737_
*982 _0738_
*983 _0739_
*984 _0740_
*985 _0741_
*986 _0742_
*987 _0743_
*988 _0744_
*989 _0745_
*990 _0746_
*991 _0747_
*992 _0748_
*993 _0749_
*994 _0750_
*995 _0751_
*996 _0752_
*997 _0753_
*998 _0754_
*999 _0755_
*1000 _0756_
*1001 _0757_
*1002 _0758_
*1003 _0759_
*1004 _0760_
*1005 _0761_
*1006 _0762_
*1007 _0763_
*1008 _0764_
*1009 _0765_
*1010 _0766_
*1011 _0767_
*1012 _0768_
*1013 _0769_
*1014 _0770_
*1015 _0771_
*1016 _0772_
*1017 _0773_
*1018 _0774_
*1019 _0775_
*1020 _0776_
*1021 _0777_
*1022 _0778_
*1023 _0779_
*1024 _0780_
*1025 _0781_
*1026 _0782_
*1027 _0783_
*1028 _0784_
*1029 _0785_
*1030 _0786_
*1031 _0787_
*1032 _0788_
*1033 _0789_
*1034 _0790_
*1035 _0791_
*1036 _0792_
*1037 _0793_
*1038 _0794_
*1039 _0795_
*1040 _0796_
*1041 _0797_
*1042 _0798_
*1043 _0799_
*1044 _0800_
*1045 _0801_
*1046 _0802_
*1047 _0803_
*1048 _0804_
*1049 _0805_
*1050 _0806_
*1051 _0807_
*1052 _0808_
*1053 _0809_
*1054 _0810_
*1055 _0811_
*1056 _0812_
*1057 _0813_
*1058 _0814_
*1059 _0815_
*1060 _0816_
*1061 _0817_
*1062 _0818_
*1063 _0819_
*1064 _0820_
*1065 _0821_
*1066 _0822_
*1067 _0823_
*1068 _0824_
*1069 _0825_
*1070 _0826_
*1071 _0827_
*1072 _0828_
*1073 _0829_
*1074 _0830_
*1075 _0831_
*1076 _0832_
*1077 _0833_
*1078 _0834_
*1079 _0835_
*1080 _0836_
*1081 _0837_
*1082 _0838_
*1083 _0839_
*1084 _0840_
*1085 _0841_
*1086 _0842_
*1087 _0843_
*1088 _0844_
*1089 _0845_
*1090 _0846_
*1091 _0847_
*1092 _0848_
*1093 _0849_
*1094 _0850_
*1095 _0851_
*1096 _0852_
*1097 _0853_
*1098 _0854_
*1099 _0855_
*1100 _0856_
*1101 _0857_
*1102 _0858_
*1103 _0859_
*1104 _0860_
*1105 _0861_
*1106 _0862_
*1107 _0863_
*1108 _0864_
*1109 _0865_
*1110 _0866_
*1111 _0867_
*1112 _0868_
*1113 _0869_
*1114 _0870_
*1115 _0871_
*1116 _0872_
*1117 _0873_
*1118 _0874_
*1119 _0875_
*1120 _0876_
*1121 _0877_
*1122 _0878_
*1123 _0879_
*1124 _0880_
*1125 _0881_
*1126 _0882_
*1127 _0883_
*1128 _0884_
*1129 _0885_
*1130 _0886_
*1131 _0887_
*1132 _0888_
*1133 _0889_
*1134 _0890_
*1135 _0891_
*1136 _0892_
*1137 _0893_
*1138 _0894_
*1139 _0895_
*1140 _0896_
*1141 _0897_
*1142 _0898_
*1143 _0899_
*1144 _0900_
*1145 _0901_
*1146 _0902_
*1147 _0903_
*1148 _0904_
*1149 _0905_
*1150 _0906_
*1151 _0907_
*1152 _0908_
*1153 _0909_
*1154 _0910_
*1155 _0911_
*1156 _0912_
*1157 _0913_
*1158 _0914_
*1159 _0915_
*1160 _0916_
*1161 _0917_
*1162 _0918_
*1163 _0919_
*1164 _0920_
*1165 _0921_
*1166 _0922_
*1167 _0923_
*1168 _0924_
*1169 _0925_
*1170 _0926_
*1171 _0927_
*1172 _0928_
*1173 _0929_
*1174 _0930_
*1175 _0931_
*1176 _0932_
*1177 _0933_
*1178 _0934_
*1179 _0935_
*1180 _0936_
*1181 _0937_
*1182 _0938_
*1183 _0939_
*1184 _0940_
*1185 _0941_
*1186 _0942_
*1187 _0943_
*1188 _0944_
*1189 _0945_
*1190 _0946_
*1191 _0947_
*1192 _0948_
*1193 _0949_
*1194 _0950_
*1195 _0951_
*1196 _0952_
*1197 _0953_
*1198 _0954_
*1199 _0955_
*1200 _0956_
*1201 _0957_
*1202 _0958_
*1203 _0959_
*1204 _0960_
*1205 _0961_
*1206 _0962_
*1207 _0963_
*1208 _0964_
*1209 _0965_
*1210 _0966_
*1211 _0967_
*1212 _0968_
*1213 _0969_
*1214 _0970_
*1215 _0971_
*1216 _0972_
*1217 _0973_
*1218 _0974_
*1219 _0975_
*1220 _0976_
*1221 _0977_
*1222 _0978_
*1223 _0979_
*1224 _0980_
*1225 _0981_
*1226 _0982_
*1227 _0983_
*1228 _0984_
*1229 _0985_
*1230 _0986_
*1231 _0987_
*1232 _0988_
*1233 _0989_
*1234 _0990_
*1235 _0991_
*1236 _0992_
*1237 _0993_
*1238 _0994_
*1239 _0995_
*1240 _0996_
*1241 _0997_
*1242 _0998_
*1243 _0999_
*1244 _1000_
*1245 _1001_
*1246 _1002_
*1247 _1003_
*1248 _1004_
*1249 _1005_
*1250 _1006_
*1251 _1007_
*1252 _1008_
*1253 _1009_
*1254 _1010_
*1255 _1011_
*1256 _1012_
*1257 _1013_
*1258 _1014_
*1259 _1015_
*1260 _1016_
*1261 _1017_
*1262 _1018_
*1263 _1019_
*1264 _1020_
*1265 _1021_
*1266 _1022_
*1267 _1023_
*1268 _1024_
*1269 _1025_
*1270 _1026_
*1271 _1027_
*1272 _1028_
*1273 _1029_
*1274 _1030_
*1275 _1031_
*1276 _1032_
*1277 _1033_
*1278 _1034_
*1279 _1035_
*1280 _1036_
*1281 _1037_
*1282 _1038_
*1283 _1039_
*1284 _1040_
*1285 _1041_
*1286 _1042_
*1287 _1043_
*1288 _1044_
*1289 _1045_
*1290 _1046_
*1291 _1047_
*1292 _1048_
*1293 _1049_
*1294 _1050_
*1295 _1051_
*1296 _1052_
*1297 _1053_
*1298 _1054_
*1299 _1055_
*1300 _1056_
*1301 _1057_
*1302 _1058_
*1303 _1059_
*1304 _1060_
*1305 _1061_
*1306 _1062_
*1307 _1063_
*1308 _1064_
*1309 _1065_
*1310 _1066_
*1311 _1067_
*1312 _1068_
*1313 _1069_
*1314 _1070_
*1315 _1071_
*1316 _1072_
*1317 _1073_
*1318 _1074_
*1319 _1075_
*1320 _1076_
*1321 _1077_
*1322 _1078_
*1323 _1079_
*1324 _1080_
*1325 _1081_
*1326 _1082_
*1327 _1083_
*1328 _1084_
*1329 _1085_
*1330 _1086_
*1331 _1087_
*1332 _1088_
*1333 _1089_
*1334 _1090_
*1335 _1091_
*1336 _1092_
*1337 _1093_
*1338 _1094_
*1339 _1095_
*1340 _1096_
*1341 _1097_
*1342 _1098_
*1343 _1099_
*1344 _1100_
*1345 _1101_
*1346 _1102_
*1347 _1103_
*1348 _1104_
*1349 _1105_
*1350 _1106_
*1351 _1107_
*1352 _1108_
*1353 _1109_
*1354 _1110_
*1355 _1111_
*1356 _1112_
*1357 _1113_
*1358 _1114_
*1359 _1115_
*1360 _1116_
*1361 _1117_
*1362 _1118_
*1363 _1119_
*1364 _1120_
*1365 _1121_
*1366 _1122_
*1367 _1123_
*1368 _1124_
*1369 _1125_
*1370 _1126_
*1371 _1127_
*1372 _1128_
*1373 _1129_
*1374 _1130_
*1375 _1131_
*1376 _1132_
*1377 _1133_
*1378 _1134_
*1379 _1135_
*1380 _1136_
*1381 _1137_
*1382 _1138_
*1383 _1139_
*1384 _1140_
*1385 _1141_
*1386 _1142_
*1387 _1143_
*1388 _1144_
*1389 _1145_
*1390 _1146_
*1391 _1147_
*1392 _1148_
*1393 _1149_
*1394 _1150_
*1395 _1151_
*1396 _1152_
*1397 _1153_
*1398 _1154_
*1399 _1155_
*1400 _1156_
*1401 _1157_
*1402 _1158_
*1403 _1159_
*1404 _1160_
*1405 _1161_
*1406 _1162_
*1407 _1163_
*1408 _1164_
*1409 _1165_
*1410 _1166_
*1411 _1167_
*1412 _1168_
*1413 _1169_
*1414 _1170_
*1415 _1171_
*1416 _1172_
*1417 _1173_
*1418 _1174_
*1419 _1175_
*1420 _1176_
*1421 _1177_
*1422 _1178_
*1423 _1179_
*1424 _1180_
*1425 _1181_
*1426 _1182_
*1427 _1183_
*1428 _1184_
*1429 _1185_
*1430 _1186_
*1431 _1187_
*1432 _1188_
*1433 _1189_
*1434 _1190_
*1435 _1191_
*1436 _1192_
*1437 _1193_
*1438 _1194_
*1439 _1195_
*1440 _1196_
*1441 _1197_
*1442 _1198_
*1443 _1199_
*1444 _1200_
*1445 _1201_
*1446 _1202_
*1447 _1203_
*1448 _1204_
*1449 _1205_
*1450 _1206_
*1451 _1207_
*1452 _1208_
*1453 _1209_
*1454 _1210_
*1455 _1211_
*1456 _1212_
*1457 _1213_
*1458 _1214_
*1459 _1215_
*1460 _1216_
*1461 _1217_
*1462 _1218_
*1463 _1219_
*1464 _1220_
*1465 _1221_
*1466 _1222_
*1467 _1223_
*1468 _1224_
*1469 _1225_
*1470 _1226_
*1471 _1227_
*1472 _1228_
*1473 _1229_
*1474 _1230_
*1475 _1231_
*1476 _1232_
*1477 _1233_
*1478 _1234_
*1479 _1235_
*1480 _1236_
*1481 _1237_
*1482 _1238_
*1483 _1239_
*1484 _1240_
*1485 _1241_
*1486 _1242_
*1487 _1243_
*1488 _1244_
*1489 _1245_
*1490 clknet_0_clk
*1491 clknet_4_0_0_clk
*1492 clknet_4_10_0_clk
*1493 clknet_4_11_0_clk
*1494 clknet_4_12_0_clk
*1495 clknet_4_13_0_clk
*1496 clknet_4_14_0_clk
*1497 clknet_4_15_0_clk
*1498 clknet_4_1_0_clk
*1499 clknet_4_2_0_clk
*1500 clknet_4_3_0_clk
*1501 clknet_4_4_0_clk
*1502 clknet_4_5_0_clk
*1503 clknet_4_6_0_clk
*1504 clknet_4_7_0_clk
*1505 clknet_4_8_0_clk
*1506 clknet_4_9_0_clk
*1507 net1
*1508 net2
*1509 net26
*1510 net27
*1511 net28
*1512 net29
*1513 net3
*1514 net30
*1515 net31
*1516 net32
*1517 net33
*1518 net34
*1519 net35
*1520 net36
*1521 net37
*1522 net38
*1523 net39
*1524 net4
*1525 net40
*1526 net41
*1527 net42
*1528 net43
*1529 net44
*1530 net45
*1531 net46
*1532 net47
*1533 net48
*1534 net49
*1535 net5
*1536 net50
*1537 net51
*1538 net52
*1539 net53
*1540 net54
*1541 net55
*1542 net56
*1543 net57
*1544 net58
*1545 net59
*1546 net6
*1547 net60
*1548 net61
*1549 net62
*1550 net63
*1551 net64
*1552 net65
*1553 net66
*1554 net67
*1555 net68
*1556 net69
*1557 net7
*1558 net70
*1559 net71
*1560 net72
*1561 net73
*1562 net74
*1563 net75
*1564 net76
*1565 net77
*1566 net78
*1567 net79
*1568 net8
*1569 net80
*1570 FILLER_0_0_119
*1571 FILLER_0_0_15
*1572 FILLER_0_0_165
*1573 FILLER_0_0_173
*1574 FILLER_0_0_185
*1575 FILLER_0_0_194
*1576 FILLER_0_0_200
*1577 FILLER_0_0_221
*1578 FILLER_0_0_225
*1579 FILLER_0_0_248
*1580 FILLER_0_0_262
*1581 FILLER_0_0_281
*1582 FILLER_0_0_3
*1583 FILLER_0_0_328
*1584 FILLER_0_0_334
*1585 FILLER_0_0_62
*1586 FILLER_0_0_82
*1587 FILLER_0_0_85
*1588 FILLER_0_10_109
*1589 FILLER_0_10_139
*1590 FILLER_0_10_141
*1591 FILLER_0_10_149
*1592 FILLER_0_10_167
*1593 FILLER_0_10_18
*1594 FILLER_0_10_190
*1595 FILLER_0_10_210
*1596 FILLER_0_10_244
*1597 FILLER_0_10_248
*1598 FILLER_0_10_253
*1599 FILLER_0_10_27
*1600 FILLER_0_10_3
*1601 FILLER_0_10_317
*1602 FILLER_0_10_334
*1603 FILLER_0_10_45
*1604 FILLER_0_11_139
*1605 FILLER_0_11_153
*1606 FILLER_0_11_159
*1607 FILLER_0_11_169
*1608 FILLER_0_11_175
*1609 FILLER_0_11_19
*1610 FILLER_0_11_197
*1611 FILLER_0_11_202
*1612 FILLER_0_11_225
*1613 FILLER_0_11_247
*1614 FILLER_0_11_258
*1615 FILLER_0_11_262
*1616 FILLER_0_11_273
*1617 FILLER_0_11_279
*1618 FILLER_0_11_301
*1619 FILLER_0_11_312
*1620 FILLER_0_11_318
*1621 FILLER_0_11_328
*1622 FILLER_0_11_333
*1623 FILLER_0_11_57
*1624 FILLER_0_12_117
*1625 FILLER_0_12_128
*1626 FILLER_0_12_137
*1627 FILLER_0_12_141
*1628 FILLER_0_12_145
*1629 FILLER_0_12_156
*1630 FILLER_0_12_162
*1631 FILLER_0_12_168
*1632 FILLER_0_12_174
*1633 FILLER_0_12_182
*1634 FILLER_0_12_186
*1635 FILLER_0_12_213
*1636 FILLER_0_12_240
*1637 FILLER_0_12_262
*1638 FILLER_0_12_268
*1639 FILLER_0_12_309
*1640 FILLER_0_12_49
*1641 FILLER_0_12_99
*1642 FILLER_0_13_109
*1643 FILLER_0_13_125
*1644 FILLER_0_13_133
*1645 FILLER_0_13_142
*1646 FILLER_0_13_167
*1647 FILLER_0_13_180
*1648 FILLER_0_13_184
*1649 FILLER_0_13_195
*1650 FILLER_0_13_203
*1651 FILLER_0_13_210
*1652 FILLER_0_13_216
*1653 FILLER_0_13_240
*1654 FILLER_0_13_275
*1655 FILLER_0_13_279
*1656 FILLER_0_13_3
*1657 FILLER_0_13_328
*1658 FILLER_0_13_333
*1659 FILLER_0_13_34
*1660 FILLER_0_13_57
*1661 FILLER_0_13_90
*1662 FILLER_0_13_98
*1663 FILLER_0_14_101
*1664 FILLER_0_14_105
*1665 FILLER_0_14_124
*1666 FILLER_0_14_149
*1667 FILLER_0_14_158
*1668 FILLER_0_14_167
*1669 FILLER_0_14_175
*1670 FILLER_0_14_183
*1671 FILLER_0_14_19
*1672 FILLER_0_14_194
*1673 FILLER_0_14_223
*1674 FILLER_0_14_248
*1675 FILLER_0_14_253
*1676 FILLER_0_14_280
*1677 FILLER_0_14_309
*1678 FILLER_0_14_333
*1679 FILLER_0_14_81
*1680 FILLER_0_15_103
*1681 FILLER_0_15_126
*1682 FILLER_0_15_138
*1683 FILLER_0_15_144
*1684 FILLER_0_15_148
*1685 FILLER_0_15_156
*1686 FILLER_0_15_162
*1687 FILLER_0_15_169
*1688 FILLER_0_15_183
*1689 FILLER_0_15_188
*1690 FILLER_0_15_200
*1691 FILLER_0_15_211
*1692 FILLER_0_15_215
*1693 FILLER_0_15_223
*1694 FILLER_0_15_225
*1695 FILLER_0_15_23
*1696 FILLER_0_15_241
*1697 FILLER_0_15_276
*1698 FILLER_0_15_308
*1699 FILLER_0_15_334
*1700 FILLER_0_15_44
*1701 FILLER_0_15_54
*1702 FILLER_0_15_73
*1703 FILLER_0_15_82
*1704 FILLER_0_15_96
*1705 FILLER_0_16_108
*1706 FILLER_0_16_114
*1707 FILLER_0_16_141
*1708 FILLER_0_16_153
*1709 FILLER_0_16_163
*1710 FILLER_0_16_181
*1711 FILLER_0_16_194
*1712 FILLER_0_16_202
*1713 FILLER_0_16_243
*1714 FILLER_0_16_264
*1715 FILLER_0_16_281
*1716 FILLER_0_16_285
*1717 FILLER_0_16_3
*1718 FILLER_0_16_306
*1719 FILLER_0_16_309
*1720 FILLER_0_16_37
*1721 FILLER_0_16_49
*1722 FILLER_0_16_57
*1723 FILLER_0_16_63
*1724 FILLER_0_16_80
*1725 FILLER_0_16_85
*1726 FILLER_0_16_98
*1727 FILLER_0_17_129
*1728 FILLER_0_17_147
*1729 FILLER_0_17_167
*1730 FILLER_0_17_169
*1731 FILLER_0_17_173
*1732 FILLER_0_17_177
*1733 FILLER_0_17_181
*1734 FILLER_0_17_189
*1735 FILLER_0_17_201
*1736 FILLER_0_17_205
*1737 FILLER_0_17_228
*1738 FILLER_0_17_25
*1739 FILLER_0_17_263
*1740 FILLER_0_17_278
*1741 FILLER_0_17_281
*1742 FILLER_0_17_293
*1743 FILLER_0_17_50
*1744 FILLER_0_17_62
*1745 FILLER_0_17_80
*1746 FILLER_0_18_101
*1747 FILLER_0_18_11
*1748 FILLER_0_18_130
*1749 FILLER_0_18_139
*1750 FILLER_0_18_145
*1751 FILLER_0_18_156
*1752 FILLER_0_18_160
*1753 FILLER_0_18_177
*1754 FILLER_0_18_192
*1755 FILLER_0_18_204
*1756 FILLER_0_18_208
*1757 FILLER_0_18_215
*1758 FILLER_0_18_22
*1759 FILLER_0_18_224
*1760 FILLER_0_18_240
*1761 FILLER_0_18_250
*1762 FILLER_0_18_280
*1763 FILLER_0_18_3
*1764 FILLER_0_18_307
*1765 FILLER_0_18_333
*1766 FILLER_0_18_42
*1767 FILLER_0_18_46
*1768 FILLER_0_18_80
*1769 FILLER_0_19_107
*1770 FILLER_0_19_111
*1771 FILLER_0_19_123
*1772 FILLER_0_19_131
*1773 FILLER_0_19_149
*1774 FILLER_0_19_161
*1775 FILLER_0_19_167
*1776 FILLER_0_19_19
*1777 FILLER_0_19_196
*1778 FILLER_0_19_208
*1779 FILLER_0_19_222
*1780 FILLER_0_19_250
*1781 FILLER_0_19_27
*1782 FILLER_0_19_277
*1783 FILLER_0_19_281
*1784 FILLER_0_19_290
*1785 FILLER_0_19_311
*1786 FILLER_0_19_41
*1787 FILLER_0_19_54
*1788 FILLER_0_19_64
*1789 FILLER_0_19_72
*1790 FILLER_0_1_113
*1791 FILLER_0_1_123
*1792 FILLER_0_1_130
*1793 FILLER_0_1_142
*1794 FILLER_0_1_166
*1795 FILLER_0_1_223
*1796 FILLER_0_1_253
*1797 FILLER_0_1_264
*1798 FILLER_0_1_273
*1799 FILLER_0_1_3
*1800 FILLER_0_1_333
*1801 FILLER_0_1_57
*1802 FILLER_0_1_68
*1803 FILLER_0_20_102
*1804 FILLER_0_20_11
*1805 FILLER_0_20_135
*1806 FILLER_0_20_139
*1807 FILLER_0_20_141
*1808 FILLER_0_20_151
*1809 FILLER_0_20_157
*1810 FILLER_0_20_166
*1811 FILLER_0_20_174
*1812 FILLER_0_20_182
*1813 FILLER_0_20_191
*1814 FILLER_0_20_195
*1815 FILLER_0_20_197
*1816 FILLER_0_20_229
*1817 FILLER_0_20_3
*1818 FILLER_0_20_307
*1819 FILLER_0_20_309
*1820 FILLER_0_20_74
*1821 FILLER_0_20_82
*1822 FILLER_0_20_92
*1823 FILLER_0_21_108
*1824 FILLER_0_21_113
*1825 FILLER_0_21_121
*1826 FILLER_0_21_140
*1827 FILLER_0_21_158
*1828 FILLER_0_21_164
*1829 FILLER_0_21_177
*1830 FILLER_0_21_185
*1831 FILLER_0_21_211
*1832 FILLER_0_21_221
*1833 FILLER_0_21_257
*1834 FILLER_0_21_27
*1835 FILLER_0_21_289
*1836 FILLER_0_21_3
*1837 FILLER_0_21_302
*1838 FILLER_0_21_311
*1839 FILLER_0_21_333
*1840 FILLER_0_21_53
*1841 FILLER_0_21_61
*1842 FILLER_0_22_116
*1843 FILLER_0_22_13
*1844 FILLER_0_22_161
*1845 FILLER_0_22_175
*1846 FILLER_0_22_179
*1847 FILLER_0_22_183
*1848 FILLER_0_22_188
*1849 FILLER_0_22_194
*1850 FILLER_0_22_208
*1851 FILLER_0_22_228
*1852 FILLER_0_22_243
*1853 FILLER_0_22_26
*1854 FILLER_0_22_303
*1855 FILLER_0_22_51
*1856 FILLER_0_22_80
*1857 FILLER_0_22_85
*1858 FILLER_0_23_106
*1859 FILLER_0_23_113
*1860 FILLER_0_23_138
*1861 FILLER_0_23_151
*1862 FILLER_0_23_158
*1863 FILLER_0_23_169
*1864 FILLER_0_23_173
*1865 FILLER_0_23_189
*1866 FILLER_0_23_204
*1867 FILLER_0_23_223
*1868 FILLER_0_23_225
*1869 FILLER_0_23_265
*1870 FILLER_0_23_271
*1871 FILLER_0_23_278
*1872 FILLER_0_23_300
*1873 FILLER_0_23_31
*1874 FILLER_0_23_49
*1875 FILLER_0_23_84
*1876 FILLER_0_23_88
*1877 FILLER_0_24_119
*1878 FILLER_0_24_157
*1879 FILLER_0_24_171
*1880 FILLER_0_24_189
*1881 FILLER_0_24_205
*1882 FILLER_0_24_229
*1883 FILLER_0_24_235
*1884 FILLER_0_24_251
*1885 FILLER_0_24_29
*1886 FILLER_0_24_3
*1887 FILLER_0_24_59
*1888 FILLER_0_25_100
*1889 FILLER_0_25_150
*1890 FILLER_0_25_166
*1891 FILLER_0_25_169
*1892 FILLER_0_25_190
*1893 FILLER_0_25_233
*1894 FILLER_0_25_243
*1895 FILLER_0_25_26
*1896 FILLER_0_25_260
*1897 FILLER_0_25_285
*1898 FILLER_0_25_305
*1899 FILLER_0_25_316
*1900 FILLER_0_25_44
*1901 FILLER_0_25_87
*1902 FILLER_0_26_123
*1903 FILLER_0_26_127
*1904 FILLER_0_26_131
*1905 FILLER_0_26_139
*1906 FILLER_0_26_144
*1907 FILLER_0_26_163
*1908 FILLER_0_26_179
*1909 FILLER_0_26_183
*1910 FILLER_0_26_193
*1911 FILLER_0_26_211
*1912 FILLER_0_26_233
*1913 FILLER_0_26_239
*1914 FILLER_0_26_247
*1915 FILLER_0_26_251
*1916 FILLER_0_26_285
*1917 FILLER_0_26_304
*1918 FILLER_0_26_334
*1919 FILLER_0_26_68
*1920 FILLER_0_26_83
*1921 FILLER_0_27_103
*1922 FILLER_0_27_161
*1923 FILLER_0_27_167
*1924 FILLER_0_27_178
*1925 FILLER_0_27_198
*1926 FILLER_0_27_208
*1927 FILLER_0_27_212
*1928 FILLER_0_27_221
*1929 FILLER_0_27_225
*1930 FILLER_0_27_247
*1931 FILLER_0_27_258
*1932 FILLER_0_27_264
*1933 FILLER_0_27_278
*1934 FILLER_0_27_307
*1935 FILLER_0_27_47
*1936 FILLER_0_28_134
*1937 FILLER_0_28_152
*1938 FILLER_0_28_162
*1939 FILLER_0_28_176
*1940 FILLER_0_28_187
*1941 FILLER_0_28_197
*1942 FILLER_0_28_203
*1943 FILLER_0_28_213