*SPEF "ieee 1481-1999"
*DESIGN "tt_um_seanyen0_SIMON"
*DATE "18:28:26 Thursday May 30, 2024"
*VENDOR "The OpenROAD Project"
*PROGRAM "OpenROAD"
*VERSION "da0053d7b0014ab9c87ea148875ff6c2a0f9b658"
*DESIGN_FLOW "NAME_SCOPE LOCAL" "PIN_CAP NONE"
*DIVIDER /
*DELIMITER :
*BUS_DELIMITER []
*T_UNIT 1 NS
*C_UNIT 1 PF
*R_UNIT 1 OHM
*L_UNIT 1 HENRY

*NAME_MAP
*3 clk
*4 ena
*5 rst_n
*6 ui_in[0]
*7 ui_in[1]
*8 ui_in[2]
*9 ui_in[3]
*10 ui_in[4]
*11 ui_in[5]
*12 ui_in[6]
*13 ui_in[7]
*14 uio_in[0]
*15 uio_in[1]
*16 uio_in[2]
*17 uio_in[3]
*18 uio_in[4]
*19 uio_in[5]
*20 uio_in[6]
*21 uio_in[7]
*22 net9
*23 net10
*24 net11
*25 net12
*26 net13
*27 net14
*28 net15
*29 net16
*30 net17
*31 net18
*32 net19
*33 net20
*34 net21
*35 net22
*36 net23
*37 net24
*38 uo_out[0]
*39 uo_out[1]
*40 uo_out[2]
*41 uo_out[3]
*42 uo_out[4]
*43 uo_out[5]
*44 uo_out[6]
*45 uo_out[7]
*46 DEBUG_SIGS_GTKWAVE\.\@0\$slideswitch\[0\]
*47 DEBUG_SIGS_GTKWAVE\.\@0\$slideswitch\[1\]
*48 DEBUG_SIGS_GTKWAVE\.\@0\$slideswitch\[2\]
*49 DEBUG_SIGS_GTKWAVE\.\@0\$slideswitch\[3\]
*50 DEBUG_SIGS_GTKWAVE\.\@0\$slideswitch\[4\]
*51 DEBUG_SIGS_GTKWAVE\.\@0\$slideswitch\[5\]
*52 DEBUG_SIGS_GTKWAVE\.\@0\$slideswitch\[6\]
*53 DEBUG_SIGS_GTKWAVE\.\@0\$slideswitch\[7\]
*54 DEBUG_SIGS_GTKWAVE\.\@0\$sseg_decimal_point_n
*55 DEBUG_SIGS_GTKWAVE\.\@0\$sseg_segment_n\[0\]
*56 DEBUG_SIGS_GTKWAVE\.\@0\$sseg_segment_n\[1\]
*57 DEBUG_SIGS_GTKWAVE\.\@0\$sseg_segment_n\[2\]
*58 DEBUG_SIGS_GTKWAVE\.\@0\$sseg_segment_n\[3\]
*59 DEBUG_SIGS_GTKWAVE\.\@0\$sseg_segment_n\[4\]
*60 DEBUG_SIGS_GTKWAVE\.\@0\$sseg_segment_n\[5\]
*61 DEBUG_SIGS_GTKWAVE\.\@0\$sseg_segment_n\[6\]
*62 DEBUG_SIGS_GTKWAVE\.\/digit\[0\]\.\/leds\[0\]\.\@0\$viz_lit
*63 DEBUG_SIGS_GTKWAVE\.\/digit\[0\]\.\/leds\[1\]\.\@0\$viz_lit
*64 DEBUG_SIGS_GTKWAVE\.\/digit\[0\]\.\/leds\[2\]\.\@0\$viz_lit
*65 DEBUG_SIGS_GTKWAVE\.\/digit\[0\]\.\/leds\[3\]\.\@0\$viz_lit
*66 DEBUG_SIGS_GTKWAVE\.\/digit\[0\]\.\/leds\[4\]\.\@0\$viz_lit
*67 DEBUG_SIGS_GTKWAVE\.\/digit\[0\]\.\/leds\[5\]\.\@0\$viz_lit
*68 DEBUG_SIGS_GTKWAVE\.\/digit\[0\]\.\/leds\[6\]\.\@0\$viz_lit
*69 DEBUG_SIGS_GTKWAVE\.\/digit\[0\]\.\/leds\[7\]\.\@0\$viz_lit
*70 DEBUG_SIGS_GTKWAVE\.\/fpga_pins\.\/fpga\.P_simon\.\@\-1\$reset_in
*71 DEBUG_SIGS_GTKWAVE\.\/fpga_pins\.\/fpga\.P_simon\.\@\-1\$user_input\[0\]
*72 DEBUG_SIGS_GTKWAVE\.\/fpga_pins\.\/fpga\.P_simon\.\@\-1\$user_input\[1\]
*73 DEBUG_SIGS_GTKWAVE\.\/fpga_pins\.\/fpga\.P_simon\.\@\-1\$user_input\[2\]
*74 DEBUG_SIGS_GTKWAVE\.\/fpga_pins\.\/fpga\.P_simon\.\@\-1\$user_input\[3\]
*75 DEBUG_SIGS_GTKWAVE\.\/fpga_pins\.\/fpga\.P_simon\.\@1\$advance_game_cnt
*76 DEBUG_SIGS_GTKWAVE\.\/fpga_pins\.\/fpga\.P_simon\.\@1\$color\[0\]
*77 DEBUG_SIGS_GTKWAVE\.\/fpga_pins\.\/fpga\.P_simon\.\@1\$color\[1\]
*78 DEBUG_SIGS_GTKWAVE\.\/fpga_pins\.\/fpga\.P_simon\.\@1\$correct_guess
*79 DEBUG_SIGS_GTKWAVE\.\/fpga_pins\.\/fpga\.P_simon\.\@1\$disp_stat_dig1
*80 DEBUG_SIGS_GTKWAVE\.\/fpga_pins\.\/fpga\.P_simon\.\@1\$disp_stat_dig2
*81 DEBUG_SIGS_GTKWAVE\.\/fpga_pins\.\/fpga\.P_simon\.\@1\$game_cnt\[0\]
*82 DEBUG_SIGS_GTKWAVE\.\/fpga_pins\.\/fpga\.P_simon\.\@1\$game_cnt\[1\]
*83 DEBUG_SIGS_GTKWAVE\.\/fpga_pins\.\/fpga\.P_simon\.\@1\$game_cnt\[2\]
*84 DEBUG_SIGS_GTKWAVE\.\/fpga_pins\.\/fpga\.P_simon\.\@1\$game_cnt\[3\]
*85 DEBUG_SIGS_GTKWAVE\.\/fpga_pins\.\/fpga\.P_simon\.\@1\$game_cnt\[4\]
*86 DEBUG_SIGS_GTKWAVE\.\/fpga_pins\.\/fpga\.P_simon\.\@1\$game_stg\[0\]
*87 DEBUG_SIGS_GTKWAVE\.\/fpga_pins\.\/fpga\.P_simon\.\@1\$game_stg\[1\]
*88 DEBUG_SIGS_GTKWAVE\.\/fpga_pins\.\/fpga\.P_simon\.\@1\$game_stg\[2\]
*89 DEBUG_SIGS_GTKWAVE\.\/fpga_pins\.\/fpga\.P_simon\.\@1\$game_stg\[3\]
*90 DEBUG_SIGS_GTKWAVE\.\/fpga_pins\.\/fpga\.P_simon\.\@1\$game_stg\[4\]
*91 DEBUG_SIGS_GTKWAVE\.\/fpga_pins\.\/fpga\.P_simon\.\@1\$game_stg_m1\[0\]
*92 DEBUG_SIGS_GTKWAVE\.\/fpga_pins\.\/fpga\.P_simon\.\@1\$game_stg_m1\[1\]
*93 DEBUG_SIGS_GTKWAVE\.\/fpga_pins\.\/fpga\.P_simon\.\@1\$game_stg_m1\[2\]
*94 DEBUG_SIGS_GTKWAVE\.\/fpga_pins\.\/fpga\.P_simon\.\@1\$game_stg_m1\[3\]
*95 DEBUG_SIGS_GTKWAVE\.\/fpga_pins\.\/fpga\.P_simon\.\@1\$game_stg_m1\[4\]
*96 DEBUG_SIGS_GTKWAVE\.\/fpga_pins\.\/fpga\.P_simon\.\@1\$game_stg_m1\[5\]
*97 DEBUG_SIGS_GTKWAVE\.\/fpga_pins\.\/fpga\.P_simon\.\@1\$game_stg_m1\[6\]
*98 DEBUG_SIGS_GTKWAVE\.\/fpga_pins\.\/fpga\.P_simon\.\@1\$game_stg_m1\[7\]
*99 DEBUG_SIGS_GTKWAVE\.\/fpga_pins\.\/fpga\.P_simon\.\@1\$ii\[0\]
*100 DEBUG_SIGS_GTKWAVE\.\/fpga_pins\.\/fpga\.P_simon\.\@1\$ii\[10\]
*101 DEBUG_SIGS_GTKWAVE\.\/fpga_pins\.\/fpga\.P_simon\.\@1\$ii\[11\]
*102 DEBUG_SIGS_GTKWAVE\.\/fpga_pins\.\/fpga\.P_simon\.\@1\$ii\[12\]
*103 DEBUG_SIGS_GTKWAVE\.\/fpga_pins\.\/fpga\.P_simon\.\@1\$ii\[13\]
*104 DEBUG_SIGS_GTKWAVE\.\/fpga_pins\.\/fpga\.P_simon\.\@1\$ii\[14\]
*105 DEBUG_SIGS_GTKWAVE\.\/fpga_pins\.\/fpga\.P_simon\.\@1\$ii\[15\]
*106 DEBUG_SIGS_GTKWAVE\.\/fpga_pins\.\/fpga\.P_simon\.\@1\$ii\[16\]
*107 DEBUG_SIGS_GTKWAVE\.\/fpga_pins\.\/fpga\.P_simon\.\@1\$ii\[17\]
*108 DEBUG_SIGS_GTKWAVE\.\/fpga_pins\.\/fpga\.P_simon\.\@1\$ii\[18\]
*109 DEBUG_SIGS_GTKWAVE\.\/fpga_pins\.\/fpga\.P_simon\.\@1\$ii\[19\]
*110 DEBUG_SIGS_GTKWAVE\.\/fpga_pins\.\/fpga\.P_simon\.\@1\$ii\[1\]
*111 DEBUG_SIGS_GTKWAVE\.\/fpga_pins\.\/fpga\.P_simon\.\@1\$ii\[20\]
*112 DEBUG_SIGS_GTKWAVE\.\/fpga_pins\.\/fpga\.P_simon\.\@1\$ii\[21\]
*113 DEBUG_SIGS_GTKWAVE\.\/fpga_pins\.\/fpga\.P_simon\.\@1\$ii\[22\]
*114 DEBUG_SIGS_GTKWAVE\.\/fpga_pins\.\/fpga\.P_simon\.\@1\$ii\[23\]
*115 DEBUG_SIGS_GTKWAVE\.\/fpga_pins\.\/fpga\.P_simon\.\@1\$ii\[24\]
*116 DEBUG_SIGS_GTKWAVE\.\/fpga_pins\.\/fpga\.P_simon\.\@1\$ii\[2\]
*117 DEBUG_SIGS_GTKWAVE\.\/fpga_pins\.\/fpga\.P_simon\.\@1\$ii\[3\]
*118 DEBUG_SIGS_GTKWAVE\.\/fpga_pins\.\/fpga\.P_simon\.\@1\$ii\[4\]
*119 DEBUG_SIGS_GTKWAVE\.\/fpga_pins\.\/fpga\.P_simon\.\@1\$ii\[5\]
*120 DEBUG_SIGS_GTKWAVE\.\/fpga_pins\.\/fpga\.P_simon\.\@1\$ii\[6\]
*121 DEBUG_SIGS_GTKWAVE\.\/fpga_pins\.\/fpga\.P_simon\.\@1\$ii\[7\]
*122 DEBUG_SIGS_GTKWAVE\.\/fpga_pins\.\/fpga\.P_simon\.\@1\$ii\[8\]
*123 DEBUG_SIGS_GTKWAVE\.\/fpga_pins\.\/fpga\.P_simon\.\@1\$ii\[9\]
*124 DEBUG_SIGS_GTKWAVE\.\/fpga_pins\.\/fpga\.P_simon\.\@1\$lose_game
*125 DEBUG_SIGS_GTKWAVE\.\/fpga_pins\.\/fpga\.P_simon\.\@1\$reset
*126 DEBUG_SIGS_GTKWAVE\.\/fpga_pins\.\/fpga\.P_simon\.\@1\$reset_counter\[0\]
*127 DEBUG_SIGS_GTKWAVE\.\/fpga_pins\.\/fpga\.P_simon\.\@1\$reset_counter\[10\]
*128 DEBUG_SIGS_GTKWAVE\.\/fpga_pins\.\/fpga\.P_simon\.\@1\$reset_counter\[11\]
*129 DEBUG_SIGS_GTKWAVE\.\/fpga_pins\.\/fpga\.P_simon\.\@1\$reset_counter\[12\]
*130 DEBUG_SIGS_GTKWAVE\.\/fpga_pins\.\/fpga\.P_simon\.\@1\$reset_counter\[13\]
*131 DEBUG_SIGS_GTKWAVE\.\/fpga_pins\.\/fpga\.P_simon\.\@1\$reset_counter\[14\]
*132 DEBUG_SIGS_GTKWAVE\.\/fpga_pins\.\/fpga\.P_simon\.\@1\$reset_counter\[15\]
*133 DEBUG_SIGS_GTKWAVE\.\/fpga_pins\.\/fpga\.P_simon\.\@1\$reset_counter\[16\]
*134 DEBUG_SIGS_GTKWAVE\.\/fpga_pins\.\/fpga\.P_simon\.\@1\$reset_counter\[17\]
*135 DEBUG_SIGS_GTKWAVE\.\/fpga_pins\.\/fpga\.P_simon\.\@1\$reset_counter\[18\]
*136 DEBUG_SIGS_GTKWAVE\.\/fpga_pins\.\/fpga\.P_simon\.\@1\$reset_counter\[19\]
*137 DEBUG_SIGS_GTKWAVE\.\/fpga_pins\.\/fpga\.P_simon\.\@1\$reset_counter\[1\]
*138 DEBUG_SIGS_GTKWAVE\.\/fpga_pins\.\/fpga\.P_simon\.\@1\$reset_counter\[20\]
*139 DEBUG_SIGS_GTKWAVE\.\/fpga_pins\.\/fpga\.P_simon\.\@1\$reset_counter\[21\]
*140 DEBUG_SIGS_GTKWAVE\.\/fpga_pins\.\/fpga\.P_simon\.\@1\$reset_counter\[22\]
*141 DEBUG_SIGS_GTKWAVE\.\/fpga_pins\.\/fpga\.P_simon\.\@1\$reset_counter\[23\]
*142 DEBUG_SIGS_GTKWAVE\.\/fpga_pins\.\/fpga\.P_simon\.\@1\$reset_counter\[24\]
*143 DEBUG_SIGS_GTKWAVE\.\/fpga_pins\.\/fpga\.P_simon\.\@1\$reset_counter\[2\]
*144 DEBUG_SIGS_GTKWAVE\.\/fpga_pins\.\/fpga\.P_simon\.\@1\$reset_counter\[3\]
*145 DEBUG_SIGS_GTKWAVE\.\/fpga_pins\.\/fpga\.P_simon\.\@1\$reset_counter\[4\]
*146 DEBUG_SIGS_GTKWAVE\.\/fpga_pins\.\/fpga\.P_simon\.\@1\$reset_counter\[5\]
*147 DEBUG_SIGS_GTKWAVE\.\/fpga_pins\.\/fpga\.P_simon\.\@1\$reset_counter\[6\]
*148 DEBUG_SIGS_GTKWAVE\.\/fpga_pins\.\/fpga\.P_simon\.\@1\$reset_counter\[7\]
*149 DEBUG_SIGS_GTKWAVE\.\/fpga_pins\.\/fpga\.P_simon\.\@1\$reset_counter\[8\]
*150 DEBUG_SIGS_GTKWAVE\.\/fpga_pins\.\/fpga\.P_simon\.\@1\$reset_counter\[9\]
*151 DEBUG_SIGS_GTKWAVE\.\/fpga_pins\.\/fpga\.P_simon\.\@1\$rf_rd_data1\[0\]
*152 DEBUG_SIGS_GTKWAVE\.\/fpga_pins\.\/fpga\.P_simon\.\@1\$rf_rd_data1\[1\]
*153 DEBUG_SIGS_GTKWAVE\.\/fpga_pins\.\/fpga\.P_simon\.\@1\$rf_rd_en1
*154 DEBUG_SIGS_GTKWAVE\.\/fpga_pins\.\/fpga\.P_simon\.\@1\$rf_rd_index1\[0\]
*155 DEBUG_SIGS_GTKWAVE\.\/fpga_pins\.\/fpga\.P_simon\.\@1\$rf_rd_index1\[1\]
*156 DEBUG_SIGS_GTKWAVE\.\/fpga_pins\.\/fpga\.P_simon\.\@1\$rf_rd_index1\[2\]
*157 DEBUG_SIGS_GTKWAVE\.\/fpga_pins\.\/fpga\.P_simon\.\@1\$rf_rd_index1\[3\]
*158 DEBUG_SIGS_GTKWAVE\.\/fpga_pins\.\/fpga\.P_simon\.\@1\$rf_rd_index1\[4\]
*159 DEBUG_SIGS_GTKWAVE\.\/fpga_pins\.\/fpga\.P_simon\.\@1\$rf_wr_data\[0\]
*160 DEBUG_SIGS_GTKWAVE\.\/fpga_pins\.\/fpga\.P_simon\.\@1\$rf_wr_data\[1\]
*161 DEBUG_SIGS_GTKWAVE\.\/fpga_pins\.\/fpga\.P_simon\.\@1\$rf_wr_en
*162 DEBUG_SIGS_GTKWAVE\.\/fpga_pins\.\/fpga\.P_simon\.\@1\$rf_wr_index\[0\]
*163 DEBUG_SIGS_GTKWAVE\.\/fpga_pins\.\/fpga\.P_simon\.\@1\$rf_wr_index\[1\]
*164 DEBUG_SIGS_GTKWAVE\.\/fpga_pins\.\/fpga\.P_simon\.\@1\$rf_wr_index\[2\]
*165 DEBUG_SIGS_GTKWAVE\.\/fpga_pins\.\/fpga\.P_simon\.\@1\$rf_wr_index\[3\]
*166 DEBUG_SIGS_GTKWAVE\.\/fpga_pins\.\/fpga\.P_simon\.\@1\$rf_wr_index\[4\]
*167 DEBUG_SIGS_GTKWAVE\.\/fpga_pins\.\/fpga\.P_simon\.\@1\$sseg_out\[0\]
*168 DEBUG_SIGS_GTKWAVE\.\/fpga_pins\.\/fpga\.P_simon\.\@1\$sseg_out\[1\]
*169 DEBUG_SIGS_GTKWAVE\.\/fpga_pins\.\/fpga\.P_simon\.\@1\$sseg_out\[2\]
*170 DEBUG_SIGS_GTKWAVE\.\/fpga_pins\.\/fpga\.P_simon\.\@1\$sseg_out\[3\]
*171 DEBUG_SIGS_GTKWAVE\.\/fpga_pins\.\/fpga\.P_simon\.\@1\$sseg_out\[4\]
*172 DEBUG_SIGS_GTKWAVE\.\/fpga_pins\.\/fpga\.P_simon\.\@1\$sseg_out\[5\]
*173 DEBUG_SIGS_GTKWAVE\.\/fpga_pins\.\/fpga\.P_simon\.\@1\$sseg_out\[6\]
*174 DEBUG_SIGS_GTKWAVE\.\/fpga_pins\.\/fpga\.P_simon\.\@1\$sseg_out\[7\]
*175 DEBUG_SIGS_GTKWAVE\.\/fpga_pins\.\/fpga\.P_simon\.\@1\$stat_dig1\[0\]
*176 DEBUG_SIGS_GTKWAVE\.\/fpga_pins\.\/fpga\.P_simon\.\@1\$stat_dig1\[1\]
*177 DEBUG_SIGS_GTKWAVE\.\/fpga_pins\.\/fpga\.P_simon\.\@1\$stat_dig1\[2\]
*178 DEBUG_SIGS_GTKWAVE\.\/fpga_pins\.\/fpga\.P_simon\.\@1\$stat_dig1\[3\]
*179 DEBUG_SIGS_GTKWAVE\.\/fpga_pins\.\/fpga\.P_simon\.\@1\$stat_dig1\[4\]
*180 DEBUG_SIGS_GTKWAVE\.\/fpga_pins\.\/fpga\.P_simon\.\@1\$stat_dig1\[5\]
*181 DEBUG_SIGS_GTKWAVE\.\/fpga_pins\.\/fpga\.P_simon\.\@1\$stat_dig1\[6\]
*182 DEBUG_SIGS_GTKWAVE\.\/fpga_pins\.\/fpga\.P_simon\.\@1\$stat_dig2\[0\]
*183 DEBUG_SIGS_GTKWAVE\.\/fpga_pins\.\/fpga\.P_simon\.\@1\$stat_dig2\[1\]
*184 DEBUG_SIGS_GTKWAVE\.\/fpga_pins\.\/fpga\.P_simon\.\@1\$stat_dig2\[2\]
*185 DEBUG_SIGS_GTKWAVE\.\/fpga_pins\.\/fpga\.P_simon\.\@1\$stat_dig2\[3\]
*186 DEBUG_SIGS_GTKWAVE\.\/fpga_pins\.\/fpga\.P_simon\.\@1\$stat_dig2\[4\]
*187 DEBUG_SIGS_GTKWAVE\.\/fpga_pins\.\/fpga\.P_simon\.\@1\$stat_dig2\[5\]
*188 DEBUG_SIGS_GTKWAVE\.\/fpga_pins\.\/fpga\.P_simon\.\@1\$stat_dig2\[6\]
*189 DEBUG_SIGS_GTKWAVE\.\/fpga_pins\.\/fpga\.P_simon\.\@1\$state_guess
*190 DEBUG_SIGS_GTKWAVE\.\/fpga_pins\.\/fpga\.P_simon\.\@1\$user_button_press
*191 DEBUG_SIGS_GTKWAVE\.\/fpga_pins\.\/fpga\.P_simon\.\@1\$user_guess\[0\]
*192 DEBUG_SIGS_GTKWAVE\.\/fpga_pins\.\/fpga\.P_simon\.\@1\$user_guess\[1\]
*193 DEBUG_SIGS_GTKWAVE\.\/fpga_pins\.\/fpga\.P_simon\.\@1\$win_stg
*194 DEBUG_SIGS_GTKWAVE\.\/fpga_pins\.\/fpga\.P_simon\.\@1\$win_stg_counter\[0\]
*195 DEBUG_SIGS_GTKWAVE\.\/fpga_pins\.\/fpga\.P_simon\.\@1\$win_stg_counter\[10\]
*196 DEBUG_SIGS_GTKWAVE\.\/fpga_pins\.\/fpga\.P_simon\.\@1\$win_stg_counter\[11\]
*197 DEBUG_SIGS_GTKWAVE\.\/fpga_pins\.\/fpga\.P_simon\.\@1\$win_stg_counter\[12\]
*198 DEBUG_SIGS_GTKWAVE\.\/fpga_pins\.\/fpga\.P_simon\.\@1\$win_stg_counter\[13\]
*199 DEBUG_SIGS_GTKWAVE\.\/fpga_pins\.\/fpga\.P_simon\.\@1\$win_stg_counter\[14\]
*200 DEBUG_SIGS_GTKWAVE\.\/fpga_pins\.\/fpga\.P_simon\.\@1\$win_stg_counter\[15\]
*201 DEBUG_SIGS_GTKWAVE\.\/fpga_pins\.\/fpga\.P_simon\.\@1\$win_stg_counter\[16\]
*202 DEBUG_SIGS_GTKWAVE\.\/fpga_pins\.\/fpga\.P_simon\.\@1\$win_stg_counter\[17\]
*203 DEBUG_SIGS_GTKWAVE\.\/fpga_pins\.\/fpga\.P_simon\.\@1\$win_stg_counter\[18\]
*204 DEBUG_SIGS_GTKWAVE\.\/fpga_pins\.\/fpga\.P_simon\.\@1\$win_stg_counter\[19\]
*205 DEBUG_SIGS_GTKWAVE\.\/fpga_pins\.\/fpga\.P_simon\.\@1\$win_stg_counter\[1\]
*206 DEBUG_SIGS_GTKWAVE\.\/fpga_pins\.\/fpga\.P_simon\.\@1\$win_stg_counter\[20\]
*207 DEBUG_SIGS_GTKWAVE\.\/fpga_pins\.\/fpga\.P_simon\.\@1\$win_stg_counter\[21\]
*208 DEBUG_SIGS_GTKWAVE\.\/fpga_pins\.\/fpga\.P_simon\.\@1\$win_stg_counter\[22\]
*209 DEBUG_SIGS_GTKWAVE\.\/fpga_pins\.\/fpga\.P_simon\.\@1\$win_stg_counter\[23\]
*210 DEBUG_SIGS_GTKWAVE\.\/fpga_pins\.\/fpga\.P_simon\.\@1\$win_stg_counter\[24\]
*211 DEBUG_SIGS_GTKWAVE\.\/fpga_pins\.\/fpga\.P_simon\.\@1\$win_stg_counter\[2\]
*212 DEBUG_SIGS_GTKWAVE\.\/fpga_pins\.\/fpga\.P_simon\.\@1\$win_stg_counter\[3\]
*213 DEBUG_SIGS_GTKWAVE\.\/fpga_pins\.\/fpga\.P_simon\.\@1\$win_stg_counter\[4\]
*214 DEBUG_SIGS_GTKWAVE\.\/fpga_pins\.\/fpga\.P_simon\.\@1\$win_stg_counter\[5\]
*215 DEBUG_SIGS_GTKWAVE\.\/fpga_pins\.\/fpga\.P_simon\.\@1\$win_stg_counter\[6\]
*216 DEBUG_SIGS_GTKWAVE\.\/fpga_pins\.\/fpga\.P_simon\.\@1\$win_stg_counter\[7\]
*217 DEBUG_SIGS_GTKWAVE\.\/fpga_pins\.\/fpga\.P_simon\.\@1\$win_stg_counter\[8\]
*218 DEBUG_SIGS_GTKWAVE\.\/fpga_pins\.\/fpga\.P_simon\.\@1\$win_stg_counter\[9\]
*219 DEBUG_SIGS_GTKWAVE\.\/fpga_pins\.\/fpga\.P_simon\.\@1\$win_stg_in
*220 DEBUG_SIGS_GTKWAVE\.\/fpga_pins\.\/fpga\.P_simon\.\/xreg\[0\]\.\@1\$value\[0\]
*221 DEBUG_SIGS_GTKWAVE\.\/fpga_pins\.\/fpga\.P_simon\.\/xreg\[0\]\.\@1\$value\[1\]
*222 DEBUG_SIGS_GTKWAVE\.\/fpga_pins\.\/fpga\.P_simon\.\/xreg\[0\]\.\@1\$wr
*223 DEBUG_SIGS_GTKWAVE\.\/fpga_pins\.\/fpga\.P_simon\.\/xreg\[10\]\.\@1\$value\[0\]
*224 DEBUG_SIGS_GTKWAVE\.\/fpga_pins\.\/fpga\.P_simon\.\/xreg\[10\]\.\@1\$value\[1\]
*225 DEBUG_SIGS_GTKWAVE\.\/fpga_pins\.\/fpga\.P_simon\.\/xreg\[10\]\.\@1\$wr
*226 DEBUG_SIGS_GTKWAVE\.\/fpga_pins\.\/fpga\.P_simon\.\/xreg\[11\]\.\@1\$value\[0\]
*227 DEBUG_SIGS_GTKWAVE\.\/fpga_pins\.\/fpga\.P_simon\.\/xreg\[11\]\.\@1\$value\[1\]
*228 DEBUG_SIGS_GTKWAVE\.\/fpga_pins\.\/fpga\.P_simon\.\/xreg\[11\]\.\@1\$wr
*229 DEBUG_SIGS_GTKWAVE\.\/fpga_pins\.\/fpga\.P_simon\.\/xreg\[12\]\.\@1\$value\[0\]
*230 DEBUG_SIGS_GTKWAVE\.\/fpga_pins\.\/fpga\.P_simon\.\/xreg\[12\]\.\@1\$value\[1\]
*231 DEBUG_SIGS_GTKWAVE\.\/fpga_pins\.\/fpga\.P_simon\.\/xreg\[12\]\.\@1\$wr
*232 DEBUG_SIGS_GTKWAVE\.\/fpga_pins\.\/fpga\.P_simon\.\/xreg\[13\]\.\@1\$value\[0\]
*233 DEBUG_SIGS_GTKWAVE\.\/fpga_pins\.\/fpga\.P_simon\.\/xreg\[13\]\.\@1\$value\[1\]
*234 DEBUG_SIGS_GTKWAVE\.\/fpga_pins\.\/fpga\.P_simon\.\/xreg\[13\]\.\@1\$wr
*235 DEBUG_SIGS_GTKWAVE\.\/fpga_pins\.\/fpga\.P_simon\.\/xreg\[14\]\.\@1\$value\[0\]
*236 DEBUG_SIGS_GTKWAVE\.\/fpga_pins\.\/fpga\.P_simon\.\/xreg\[14\]\.\@1\$value\[1\]
*237 DEBUG_SIGS_GTKWAVE\.\/fpga_pins\.\/fpga\.P_simon\.\/xreg\[14\]\.\@1\$wr
*238 DEBUG_SIGS_GTKWAVE\.\/fpga_pins\.\/fpga\.P_simon\.\/xreg\[15\]\.\@1\$value\[0\]
*239 DEBUG_SIGS_GTKWAVE\.\/fpga_pins\.\/fpga\.P_simon\.\/xreg\[15\]\.\@1\$value\[1\]
*240 DEBUG_SIGS_GTKWAVE\.\/fpga_pins\.\/fpga\.P_simon\.\/xreg\[15\]\.\@1\$wr
*241 DEBUG_SIGS_GTKWAVE\.\/fpga_pins\.\/fpga\.P_simon\.\/xreg\[16\]\.\@1\$value\[0\]
*242 DEBUG_SIGS_GTKWAVE\.\/fpga_pins\.\/fpga\.P_simon\.\/xreg\[16\]\.\@1\$value\[1\]
*243 DEBUG_SIGS_GTKWAVE\.\/fpga_pins\.\/fpga\.P_simon\.\/xreg\[16\]\.\@1\$wr
*244 DEBUG_SIGS_GTKWAVE\.\/fpga_pins\.\/fpga\.P_simon\.\/xreg\[17\]\.\@1\$value\[0\]
*245 DEBUG_SIGS_GTKWAVE\.\/fpga_pins\.\/fpga\.P_simon\.\/xreg\[17\]\.\@1\$value\[1\]
*246 DEBUG_SIGS_GTKWAVE\.\/fpga_pins\.\/fpga\.P_simon\.\/xreg\[17\]\.\@1\$wr
*247 DEBUG_SIGS_GTKWAVE\.\/fpga_pins\.\/fpga\.P_simon\.\/xreg\[18\]\.\@1\$value\[0\]
*248 DEBUG_SIGS_GTKWAVE\.\/fpga_pins\.\/fpga\.P_simon\.\/xreg\[18\]\.\@1\$value\[1\]
*249 DEBUG_SIGS_GTKWAVE\.\/fpga_pins\.\/fpga\.P_simon\.\/xreg\[18\]\.\@1\$wr
*250 DEBUG_SIGS_GTKWAVE\.\/fpga_pins\.\/fpga\.P_simon\.\/xreg\[19\]\.\@1\$value\[0\]
*251 DEBUG_SIGS_GTKWAVE\.\/fpga_pins\.\/fpga\.P_simon\.\/xreg\[19\]\.\@1\$value\[1\]
*252 DEBUG_SIGS_GTKWAVE\.\/fpga_pins\.\/fpga\.P_simon\.\/xreg\[19\]\.\@1\$wr
*253 DEBUG_SIGS_GTKWAVE\.\/fpga_pins\.\/fpga\.P_simon\.\/xreg\[1\]\.\@1\$value\[0\]
*254 DEBUG_SIGS_GTKWAVE\.\/fpga_pins\.\/fpga\.P_simon\.\/xreg\[1\]\.\@1\$value\[1\]
*255 DEBUG_SIGS_GTKWAVE\.\/fpga_pins\.\/fpga\.P_simon\.\/xreg\[1\]\.\@1\$wr
*256 DEBUG_SIGS_GTKWAVE\.\/fpga_pins\.\/fpga\.P_simon\.\/xreg\[20\]\.\@1\$value\[0\]
*257 DEBUG_SIGS_GTKWAVE\.\/fpga_pins\.\/fpga\.P_simon\.\/xreg\[20\]\.\@1\$value\[1\]
*258 DEBUG_SIGS_GTKWAVE\.\/fpga_pins\.\/fpga\.P_simon\.\/xreg\[20\]\.\@1\$wr
*259 DEBUG_SIGS_GTKWAVE\.\/fpga_pins\.\/fpga\.P_simon\.\/xreg\[21\]\.\@1\$value\[0\]
*260 DEBUG_SIGS_GTKWAVE\.\/fpga_pins\.\/fpga\.P_simon\.\/xreg\[21\]\.\@1\$value\[1\]
*261 DEBUG_SIGS_GTKWAVE\.\/fpga_pins\.\/fpga\.P_simon\.\/xreg\[21\]\.\@1\$wr
*262 DEBUG_SIGS_GTKWAVE\.\/fpga_pins\.\/fpga\.P_simon\.\/xreg\[22\]\.\@1\$value\[0\]
*263 DEBUG_SIGS_GTKWAVE\.\/fpga_pins\.\/fpga\.P_simon\.\/xreg\[22\]\.\@1\$value\[1\]
*264 DEBUG_SIGS_GTKWAVE\.\/fpga_pins\.\/fpga\.P_simon\.\/xreg\[22\]\.\@1\$wr
*265 DEBUG_SIGS_GTKWAVE\.\/fpga_pins\.\/fpga\.P_simon\.\/xreg\[23\]\.\@1\$value\[0\]
*266 DEBUG_SIGS_GTKWAVE\.\/fpga_pins\.\/fpga\.P_simon\.\/xreg\[23\]\.\@1\$value\[1\]
*267 DEBUG_SIGS_GTKWAVE\.\/fpga_pins\.\/fpga\.P_simon\.\/xreg\[23\]\.\@1\$wr
*268 DEBUG_SIGS_GTKWAVE\.\/fpga_pins\.\/fpga\.P_simon\.\/xreg\[24\]\.\@1\$value\[0\]
*269 DEBUG_SIGS_GTKWAVE\.\/fpga_pins\.\/fpga\.P_simon\.\/xreg\[24\]\.\@1\$value\[1\]
*270 DEBUG_SIGS_GTKWAVE\.\/fpga_pins\.\/fpga\.P_simon\.\/xreg\[24\]\.\@1\$wr
*271 DEBUG_SIGS_GTKWAVE\.\/fpga_pins\.\/fpga\.P_simon\.\/xreg\[25\]\.\@1\$value\[0\]
*272 DEBUG_SIGS_GTKWAVE\.\/fpga_pins\.\/fpga\.P_simon\.\/xreg\[25\]\.\@1\$value\[1\]
*273 DEBUG_SIGS_GTKWAVE\.\/fpga_pins\.\/fpga\.P_simon\.\/xreg\[25\]\.\@1\$wr
*274 DEBUG_SIGS_GTKWAVE\.\/fpga_pins\.\/fpga\.P_simon\.\/xreg\[26\]\.\@1\$value\[0\]
*275 DEBUG_SIGS_GTKWAVE\.\/fpga_pins\.\/fpga\.P_simon\.\/xreg\[26\]\.\@1\$value\[1\]
*276 DEBUG_SIGS_GTKWAVE\.\/fpga_pins\.\/fpga\.P_simon\.\/xreg\[26\]\.\@1\$wr
*277 DEBUG_SIGS_GTKWAVE\.\/fpga_pins\.\/fpga\.P_simon\.\/xreg\[27\]\.\@1\$value\[0\]
*278 DEBUG_SIGS_GTKWAVE\.\/fpga_pins\.\/fpga\.P_simon\.\/xreg\[27\]\.\@1\$value\[1\]
*279 DEBUG_SIGS_GTKWAVE\.\/fpga_pins\.\/fpga\.P_simon\.\/xreg\[27\]\.\@1\$wr
*280 DEBUG_SIGS_GTKWAVE\.\/fpga_pins\.\/fpga\.P_simon\.\/xreg\[28\]\.\@1\$value\[0\]
*281 DEBUG_SIGS_GTKWAVE\.\/fpga_pins\.\/fpga\.P_simon\.\/xreg\[28\]\.\@1\$value\[1\]
*282 DEBUG_SIGS_GTKWAVE\.\/fpga_pins\.\/fpga\.P_simon\.\/xreg\[28\]\.\@1\$wr
*283 DEBUG_SIGS_GTKWAVE\.\/fpga_pins\.\/fpga\.P_simon\.\/xreg\[29\]\.\@1\$value\[0\]
*284 DEBUG_SIGS_GTKWAVE\.\/fpga_pins\.\/fpga\.P_simon\.\/xreg\[29\]\.\@1\$value\[1\]
*285 DEBUG_SIGS_GTKWAVE\.\/fpga_pins\.\/fpga\.P_simon\.\/xreg\[29\]\.\@1\$wr
*286 DEBUG_SIGS_GTKWAVE\.\/fpga_pins\.\/fpga\.P_simon\.\/xreg\[2\]\.\@1\$value\[0\]
*287 DEBUG_SIGS_GTKWAVE\.\/fpga_pins\.\/fpga\.P_simon\.\/xreg\[2\]\.\@1\$value\[1\]
*288 DEBUG_SIGS_GTKWAVE\.\/fpga_pins\.\/fpga\.P_simon\.\/xreg\[2\]\.\@1\$wr
*289 DEBUG_SIGS_GTKWAVE\.\/fpga_pins\.\/fpga\.P_simon\.\/xreg\[3\]\.\@1\$value\[0\]
*290 DEBUG_SIGS_GTKWAVE\.\/fpga_pins\.\/fpga\.P_simon\.\/xreg\[3\]\.\@1\$value\[1\]
*291 DEBUG_SIGS_GTKWAVE\.\/fpga_pins\.\/fpga\.P_simon\.\/xreg\[3\]\.\@1\$wr
*292 DEBUG_SIGS_GTKWAVE\.\/fpga_pins\.\/fpga\.P_simon\.\/xreg\[4\]\.\@1\$value\[0\]
*293 DEBUG_SIGS_GTKWAVE\.\/fpga_pins\.\/fpga\.P_simon\.\/xreg\[4\]\.\@1\$value\[1\]
*294 DEBUG_SIGS_GTKWAVE\.\/fpga_pins\.\/fpga\.P_simon\.\/xreg\[4\]\.\@1\$wr
*295 DEBUG_SIGS_GTKWAVE\.\/fpga_pins\.\/fpga\.P_simon\.\/xreg\[5\]\.\@1\$value\[0\]
*296 DEBUG_SIGS_GTKWAVE\.\/fpga_pins\.\/fpga\.P_simon\.\/xreg\[5\]\.\@1\$value\[1\]
*297 DEBUG_SIGS_GTKWAVE\.\/fpga_pins\.\/fpga\.P_simon\.\/xreg\[5\]\.\@1\$wr
*298 DEBUG_SIGS_GTKWAVE\.\/fpga_pins\.\/fpga\.P_simon\.\/xreg\[6\]\.\@1\$value\[0\]
*299 DEBUG_SIGS_GTKWAVE\.\/fpga_pins\.\/fpga\.P_simon\.\/xreg\[6\]\.\@1\$value\[1\]
*300 DEBUG_SIGS_GTKWAVE\.\/fpga_pins\.\/fpga\.P_simon\.\/xreg\[6\]\.\@1\$wr
*301 DEBUG_SIGS_GTKWAVE\.\/fpga_pins\.\/fpga\.P_simon\.\/xreg\[7\]\.\@1\$value\[0\]
*302 DEBUG_SIGS_GTKWAVE\.\/fpga_pins\.\/fpga\.P_simon\.\/xreg\[7\]\.\@1\$value\[1\]
*303 DEBUG_SIGS_GTKWAVE\.\/fpga_pins\.\/fpga\.P_simon\.\/xreg\[7\]\.\@1\$wr
*304 DEBUG_SIGS_GTKWAVE\.\/fpga_pins\.\/fpga\.P_simon\.\/xreg\[8\]\.\@1\$value\[0\]
*305 DEBUG_SIGS_GTKWAVE\.\/fpga_pins\.\/fpga\.P_simon\.\/xreg\[8\]\.\@1\$value\[1\]
*306 DEBUG_SIGS_GTKWAVE\.\/fpga_pins\.\/fpga\.P_simon\.\/xreg\[8\]\.\@1\$wr
*307 DEBUG_SIGS_GTKWAVE\.\/fpga_pins\.\/fpga\.P_simon\.\/xreg\[9\]\.\@1\$value\[0\]
*308 DEBUG_SIGS_GTKWAVE\.\/fpga_pins\.\/fpga\.P_simon\.\/xreg\[9\]\.\@1\$value\[1\]
*309 DEBUG_SIGS_GTKWAVE\.\/fpga_pins\.\/fpga\.P_simon\.\/xreg\[9\]\.\@1\$wr
*310 DEBUG_SIGS_GTKWAVE\.\/switch\[0\]\.\@0\$viz_switch
*311 DEBUG_SIGS_GTKWAVE\.\/switch\[1\]\.\@0\$viz_switch
*312 DEBUG_SIGS_GTKWAVE\.\/switch\[2\]\.\@0\$viz_switch
*313 DEBUG_SIGS_GTKWAVE\.\/switch\[3\]\.\@0\$viz_switch
*314 DEBUG_SIGS_GTKWAVE\.\/switch\[4\]\.\@0\$viz_switch
*315 DEBUG_SIGS_GTKWAVE\.\/switch\[5\]\.\@0\$viz_switch
*316 DEBUG_SIGS_GTKWAVE\.\/switch\[6\]\.\@0\$viz_switch
*317 DEBUG_SIGS_GTKWAVE\.\/switch\[7\]\.\@0\$viz_switch
*318 FpgaPins_Fpga_SIMON_Xreg_value_a2\[0\]\[0\]
*319 FpgaPins_Fpga_SIMON_Xreg_value_a2\[0\]\[1\]
*320 FpgaPins_Fpga_SIMON_Xreg_value_a2\[10\]\[0\]
*321 FpgaPins_Fpga_SIMON_Xreg_value_a2\[10\]\[1\]
*322 FpgaPins_Fpga_SIMON_Xreg_value_a2\[11\]\[0\]
*323 FpgaPins_Fpga_SIMON_Xreg_value_a2\[11\]\[1\]
*324 FpgaPins_Fpga_SIMON_Xreg_value_a2\[12\]\[0\]
*325 FpgaPins_Fpga_SIMON_Xreg_value_a2\[12\]\[1\]
*326 FpgaPins_Fpga_SIMON_Xreg_value_a2\[13\]\[0\]
*327 FpgaPins_Fpga_SIMON_Xreg_value_a2\[13\]\[1\]
*328 FpgaPins_Fpga_SIMON_Xreg_value_a2\[14\]\[0\]
*329 FpgaPins_Fpga_SIMON_Xreg_value_a2\[14\]\[1\]
*330 FpgaPins_Fpga_SIMON_Xreg_value_a2\[15\]\[0\]
*331 FpgaPins_Fpga_SIMON_Xreg_value_a2\[15\]\[1\]
*332 FpgaPins_Fpga_SIMON_Xreg_value_a2\[16\]\[0\]
*333 FpgaPins_Fpga_SIMON_Xreg_value_a2\[16\]\[1\]
*334 FpgaPins_Fpga_SIMON_Xreg_value_a2\[17\]\[0\]
*335 FpgaPins_Fpga_SIMON_Xreg_value_a2\[17\]\[1\]
*336 FpgaPins_Fpga_SIMON_Xreg_value_a2\[18\]\[0\]
*337 FpgaPins_Fpga_SIMON_Xreg_value_a2\[18\]\[1\]
*338 FpgaPins_Fpga_SIMON_Xreg_value_a2\[19\]\[0\]
*339 FpgaPins_Fpga_SIMON_Xreg_value_a2\[19\]\[1\]
*340 FpgaPins_Fpga_SIMON_Xreg_value_a2\[1\]\[0\]
*341 FpgaPins_Fpga_SIMON_Xreg_value_a2\[1\]\[1\]
*342 FpgaPins_Fpga_SIMON_Xreg_value_a2\[20\]\[0\]
*343 FpgaPins_Fpga_SIMON_Xreg_value_a2\[20\]\[1\]
*344 FpgaPins_Fpga_SIMON_Xreg_value_a2\[21\]\[0\]
*345 FpgaPins_Fpga_SIMON_Xreg_value_a2\[21\]\[1\]
*346 FpgaPins_Fpga_SIMON_Xreg_value_a2\[22\]\[0\]
*347 FpgaPins_Fpga_SIMON_Xreg_value_a2\[22\]\[1\]
*348 FpgaPins_Fpga_SIMON_Xreg_value_a2\[23\]\[0\]
*349 FpgaPins_Fpga_SIMON_Xreg_value_a2\[23\]\[1\]
*350 FpgaPins_Fpga_SIMON_Xreg_value_a2\[24\]\[0\]
*351 FpgaPins_Fpga_SIMON_Xreg_value_a2\[24\]\[1\]
*352 FpgaPins_Fpga_SIMON_Xreg_value_a2\[25\]\[0\]
*353 FpgaPins_Fpga_SIMON_Xreg_value_a2\[25\]\[1\]
*354 FpgaPins_Fpga_SIMON_Xreg_value_a2\[26\]\[0\]
*355 FpgaPins_Fpga_SIMON_Xreg_value_a2\[26\]\[1\]
*356 FpgaPins_Fpga_SIMON_Xreg_value_a2\[27\]\[0\]
*357 FpgaPins_Fpga_SIMON_Xreg_value_a2\[27\]\[1\]
*358 FpgaPins_Fpga_SIMON_Xreg_value_a2\[28\]\[0\]
*359 FpgaPins_Fpga_SIMON_Xreg_value_a2\[28\]\[1\]
*360 FpgaPins_Fpga_SIMON_Xreg_value_a2\[29\]\[0\]
*361 FpgaPins_Fpga_SIMON_Xreg_value_a2\[29\]\[1\]
*362 FpgaPins_Fpga_SIMON_Xreg_value_a2\[2\]\[0\]
*363 FpgaPins_Fpga_SIMON_Xreg_value_a2\[2\]\[1\]
*364 FpgaPins_Fpga_SIMON_Xreg_value_a2\[3\]\[0\]
*365 FpgaPins_Fpga_SIMON_Xreg_value_a2\[3\]\[1\]
*366 FpgaPins_Fpga_SIMON_Xreg_value_a2\[4\]\[0\]
*367 FpgaPins_Fpga_SIMON_Xreg_value_a2\[4\]\[1\]
*368 FpgaPins_Fpga_SIMON_Xreg_value_a2\[5\]\[0\]
*369 FpgaPins_Fpga_SIMON_Xreg_value_a2\[5\]\[1\]
*370 FpgaPins_Fpga_SIMON_Xreg_value_a2\[6\]\[0\]
*371 FpgaPins_Fpga_SIMON_Xreg_value_a2\[6\]\[1\]
*372 FpgaPins_Fpga_SIMON_Xreg_value_a2\[7\]\[0\]
*373 FpgaPins_Fpga_SIMON_Xreg_value_a2\[7\]\[1\]
*374 FpgaPins_Fpga_SIMON_Xreg_value_a2\[8\]\[0\]
*375 FpgaPins_Fpga_SIMON_Xreg_value_a2\[8\]\[1\]
*376 FpgaPins_Fpga_SIMON_Xreg_value_a2\[9\]\[0\]
*377 FpgaPins_Fpga_SIMON_Xreg_value_a2\[9\]\[1\]
*378 FpgaPins_Fpga_SIMON_correct_guess_a2
*379 FpgaPins_Fpga_SIMON_game_cnt_a2\[0\]
*380 FpgaPins_Fpga_SIMON_game_cnt_a2\[1\]
*381 FpgaPins_Fpga_SIMON_game_cnt_a2\[2\]
*382 FpgaPins_Fpga_SIMON_game_cnt_a2\[3\]
*383 FpgaPins_Fpga_SIMON_game_cnt_a2\[4\]
*384 FpgaPins_Fpga_SIMON_ii_a2\[10\]
*385 FpgaPins_Fpga_SIMON_ii_a2\[11\]
*386 FpgaPins_Fpga_SIMON_ii_a2\[12\]
*387 FpgaPins_Fpga_SIMON_ii_a2\[13\]
*388 FpgaPins_Fpga_SIMON_ii_a2\[14\]
*389 FpgaPins_Fpga_SIMON_ii_a2\[15\]
*390 FpgaPins_Fpga_SIMON_ii_a2\[16\]
*391 FpgaPins_Fpga_SIMON_ii_a2\[17\]
*392 FpgaPins_Fpga_SIMON_ii_a2\[18\]
*393 FpgaPins_Fpga_SIMON_ii_a2\[19\]
*394 FpgaPins_Fpga_SIMON_ii_a2\[20\]
*395 FpgaPins_Fpga_SIMON_ii_a2\[21\]
*396 FpgaPins_Fpga_SIMON_ii_a2\[22\]
*397 FpgaPins_Fpga_SIMON_ii_a2\[23\]
*398 FpgaPins_Fpga_SIMON_ii_a2\[24\]
*399 FpgaPins_Fpga_SIMON_ii_a2\[2\]
*400 FpgaPins_Fpga_SIMON_ii_a2\[3\]
*401 FpgaPins_Fpga_SIMON_ii_a2\[4\]
*402 FpgaPins_Fpga_SIMON_ii_a2\[5\]
*403 FpgaPins_Fpga_SIMON_ii_a2\[6\]
*404 FpgaPins_Fpga_SIMON_ii_a2\[7\]
*405 FpgaPins_Fpga_SIMON_ii_a2\[8\]
*406 FpgaPins_Fpga_SIMON_ii_a2\[9\]
*407 FpgaPins_Fpga_SIMON_lose_game_a2
*408 FpgaPins_Fpga_SIMON_lose_game_a3
*409 FpgaPins_Fpga_SIMON_reset_counter_a2\[0\]
*410 FpgaPins_Fpga_SIMON_reset_counter_a2\[10\]
*411 FpgaPins_Fpga_SIMON_reset_counter_a2\[11\]
*412 FpgaPins_Fpga_SIMON_reset_counter_a2\[12\]
*413 FpgaPins_Fpga_SIMON_reset_counter_a2\[13\]
*414 FpgaPins_Fpga_SIMON_reset_counter_a2\[14\]
*415 FpgaPins_Fpga_SIMON_reset_counter_a2\[15\]
*416 FpgaPins_Fpga_SIMON_reset_counter_a2\[16\]
*417 FpgaPins_Fpga_SIMON_reset_counter_a2\[17\]
*418 FpgaPins_Fpga_SIMON_reset_counter_a2\[18\]
*419 FpgaPins_Fpga_SIMON_reset_counter_a2\[19\]
*420 FpgaPins_Fpga_SIMON_reset_counter_a2\[1\]
*421 FpgaPins_Fpga_SIMON_reset_counter_a2\[20\]
*422 FpgaPins_Fpga_SIMON_reset_counter_a2\[21\]
*423 FpgaPins_Fpga_SIMON_reset_counter_a2\[22\]
*424 FpgaPins_Fpga_SIMON_reset_counter_a2\[23\]
*425 FpgaPins_Fpga_SIMON_reset_counter_a2\[24\]
*426 FpgaPins_Fpga_SIMON_reset_counter_a2\[2\]
*427 FpgaPins_Fpga_SIMON_reset_counter_a2\[3\]
*428 FpgaPins_Fpga_SIMON_reset_counter_a2\[4\]
*429 FpgaPins_Fpga_SIMON_reset_counter_a2\[5\]
*430 FpgaPins_Fpga_SIMON_reset_counter_a2\[6\]
*431 FpgaPins_Fpga_SIMON_reset_counter_a2\[7\]
*432 FpgaPins_Fpga_SIMON_reset_counter_a2\[8\]
*433 FpgaPins_Fpga_SIMON_reset_counter_a2\[9\]
*434 FpgaPins_Fpga_SIMON_reset_in_a0
*435 FpgaPins_Fpga_SIMON_reset_in_a1
*436 FpgaPins_Fpga_SIMON_state_guess_a2
*437 FpgaPins_Fpga_SIMON_user_button_press_a2
*438 FpgaPins_Fpga_SIMON_user_guess_a2\[1\]
*439 FpgaPins_Fpga_SIMON_user_guess_a2\[2\]
*440 FpgaPins_Fpga_SIMON_user_guess_a2\[3\]
*441 FpgaPins_Fpga_SIMON_user_input_a0\[0\]
*442 FpgaPins_Fpga_SIMON_user_input_a0\[1\]
*443 FpgaPins_Fpga_SIMON_user_input_a0\[2\]
*444 FpgaPins_Fpga_SIMON_user_input_a0\[3\]
*445 FpgaPins_Fpga_SIMON_user_input_a1\[0\]
*446 FpgaPins_Fpga_SIMON_user_input_a1\[1\]
*447 FpgaPins_Fpga_SIMON_user_input_a1\[2\]
*448 FpgaPins_Fpga_SIMON_user_input_a1\[3\]
*449 FpgaPins_Fpga_SIMON_user_input_a2\[0\]
*450 FpgaPins_Fpga_SIMON_user_input_a2\[1\]
*451 FpgaPins_Fpga_SIMON_user_input_a2\[2\]
*452 FpgaPins_Fpga_SIMON_user_input_a2\[3\]
*453 FpgaPins_Fpga_SIMON_win_stg_a2
*454 FpgaPins_Fpga_SIMON_win_stg_counter_a2\[0\]
*455 FpgaPins_Fpga_SIMON_win_stg_counter_a2\[10\]
*456 FpgaPins_Fpga_SIMON_win_stg_counter_a2\[11\]
*457 FpgaPins_Fpga_SIMON_win_stg_counter_a2\[12\]
*458 FpgaPins_Fpga_SIMON_win_stg_counter_a2\[13\]
*459 FpgaPins_Fpga_SIMON_win_stg_counter_a2\[14\]
*460 FpgaPins_Fpga_SIMON_win_stg_counter_a2\[15\]
*461 FpgaPins_Fpga_SIMON_win_stg_counter_a2\[16\]
*462 FpgaPins_Fpga_SIMON_win_stg_counter_a2\[17\]
*463 FpgaPins_Fpga_SIMON_win_stg_counter_a2\[18\]
*464 FpgaPins_Fpga_SIMON_win_stg_counter_a2\[19\]
*465 FpgaPins_Fpga_SIMON_win_stg_counter_a2\[1\]
*466 FpgaPins_Fpga_SIMON_win_stg_counter_a2\[20\]
*467 FpgaPins_Fpga_SIMON_win_stg_counter_a2\[21\]
*468 FpgaPins_Fpga_SIMON_win_stg_counter_a2\[22\]
*469 FpgaPins_Fpga_SIMON_win_stg_counter_a2\[23\]
*470 FpgaPins_Fpga_SIMON_win_stg_counter_a2\[24\]
*471 FpgaPins_Fpga_SIMON_win_stg_counter_a2\[2\]
*472 FpgaPins_Fpga_SIMON_win_stg_counter_a2\[3\]
*473 FpgaPins_Fpga_SIMON_win_stg_counter_a2\[4\]
*474 FpgaPins_Fpga_SIMON_win_stg_counter_a2\[5\]
*475 FpgaPins_Fpga_SIMON_win_stg_counter_a2\[6\]
*476 FpgaPins_Fpga_SIMON_win_stg_counter_a2\[7\]
*477 FpgaPins_Fpga_SIMON_win_stg_counter_a2\[8\]
*478 FpgaPins_Fpga_SIMON_win_stg_counter_a2\[9\]
*479 FpgaPins_Fpga_SIMON_win_stg_in_a2
*480 _0000_
*481 _0001_
*482 _0002_
*483 _0003_
*484 _0004_
*485 _0005_
*486 _0006_
*487 _0007_
*488 _0008_
*489 _0009_
*490 _0010_
*491 _0011_
*492 _0012_
*493 _0013_
*494 _0014_
*495 _0015_
*496 _0016_
*497 _0017_
*498 _0018_
*499 _0019_
*500 _0020_
*501 _0021_
*502 _0022_
*503 _0023_
*504 _0024_
*505 _0025_
*506 _0026_
*507 _0027_
*508 _0028_
*509 _0029_
*510 _0030_
*511 _0031_
*512 _0032_
*513 _0033_
*514 _0034_
*515 _0035_
*516 _0036_
*517 _0037_
*518 _0038_
*519 _0039_
*520 _0040_
*521 _0041_
*522 _0042_
*523 _0043_
*524 _0044_
*525 _0045_
*526 _0046_
*527 _0047_
*528 _0048_
*529 _0049_
*530 _0050_
*531 _0051_
*532 _0052_
*533 _0053_
*534 _0054_
*535 _0055_
*536 _0056_
*537 _0057_
*538 _0058_
*539 _0059_
*540 _0060_
*541 _0061_
*542 _0062_
*543 _0063_
*544 _0064_
*545 _0065_
*546 _0066_
*547 _0067_
*548 _0068_
*549 _0069_
*550 _0070_
*551 _0071_
*552 _0072_
*553 _0073_
*554 _0074_
*555 _0075_
*556 _0076_
*557 _0077_
*558 _0078_
*559 _0079_
*560 _0080_
*561 _0081_
*562 _0082_
*563 _0083_
*564 _0084_
*565 _0085_
*566 _0086_
*567 _0087_
*568 _0088_
*569 _0089_
*570 _0090_
*571 _0091_
*572 _0092_
*573 _0093_
*574 _0094_
*575 _0095_
*576 _0096_
*577 _0097_
*578 _0098_
*579 _0099_
*580 _0100_
*581 _0101_