*SPEF "ieee 1481-1999"
*DESIGN "tt_um_eater_8bit"
*DATE "09:51:15 Sunday May 05, 2024"
*VENDOR "The OpenROAD Project"
*PROGRAM "OpenROAD"
*VERSION "da0053d7b0014ab9c87ea148875ff6c2a0f9b658"
*DESIGN_FLOW "NAME_SCOPE LOCAL" "PIN_CAP NONE"
*DIVIDER /
*DELIMITER :
*BUS_DELIMITER []
*T_UNIT 1 NS
*C_UNIT 1 PF
*R_UNIT 1 OHM
*L_UNIT 1 HENRY

*NAME_MAP
*3 clk
*4 ena
*5 rst_n
*6 ui_in[0]
*7 ui_in[1]
*8 ui_in[2]
*9 ui_in[3]
*10 ui_in[4]
*11 ui_in[5]
*12 ui_in[6]
*13 ui_in[7]
*14 uio_in[0]
*15 uio_in[1]
*16 uio_in[2]
*17 uio_in[3]
*18 uio_in[4]
*19 uio_in[5]
*20 uio_in[6]
*21 uio_in[7]
*22 uio_oe[0]
*23 net45
*24 net46
*25 net47
*26 net48
*27 net49
*28 net50
*29 net51
*30 uio_out[0]
*31 uio_out[1]
*32 uio_out[2]
*33 uio_out[3]
*34 uio_out[4]
*35 uio_out[5]
*36 uio_out[6]
*37 uio_out[7]
*38 uo_out[0]
*39 net52
*40 net53
*41 net54
*42 net55
*43 net56
*44 net57
*45 net58
*46 _0000_
*47 _0001_
*48 _0002_
*49 _0003_
*50 _0004_
*51 _0005_
*52 _0006_
*53 _0007_
*54 _0008_
*55 _0009_
*56 _0010_
*57 _0011_
*58 _0012_
*59 _0013_
*60 _0014_
*61 _0015_
*62 _0016_
*63 _0017_
*64 _0018_
*65 _0019_
*66 _0020_
*67 _0021_
*68 _0022_
*69 _0023_
*70 _0024_
*71 _0025_
*72 _0026_
*73 _0027_
*74 _0028_
*75 _0029_
*76 _0030_
*77 _0031_
*78 _0032_
*79 _0033_
*80 _0034_
*81 _0035_
*82 _0036_
*83 _0037_
*84 _0038_
*85 _0039_
*86 _0040_
*87 _0041_
*88 _0042_
*89 _0043_
*90 _0044_
*91 _0045_
*92 _0046_
*93 _0047_
*94 _0048_
*95 _0049_
*96 _0050_
*97 _0051_
*98 _0052_
*99 _0053_
*100 _0054_
*101 _0055_
*102 _0056_
*103 _0057_
*104 _0058_
*105 _0059_
*106 _0060_
*107 _0061_
*108 _0062_
*109 _0063_
*110 _0064_
*111 _0065_
*112 _0066_
*113 _0067_
*114 _0068_
*115 _0069_
*116 _0070_
*117 _0071_
*118 _0072_
*119 _0073_
*120 _0074_
*121 _0075_
*122 _0076_
*123 _0077_
*124 _0078_
*125 _0079_
*126 _0080_
*127 _0081_
*128 _0082_
*129 _0083_
*130 _0084_
*131 _0085_
*132 _0086_
*133 _0087_
*134 _0088_
*135 _0089_
*136 _0090_
*137 _0091_
*138 _0092_
*139 _0093_
*140 _0094_
*141 _0095_
*142 _0096_
*143 _0097_
*144 _0098_
*145 _0099_
*146 _0100_
*147 _0101_
*148 _0102_
*149 _0103_
*150 _0104_
*151 _0105_
*152 _0106_
*153 _0107_
*154 _0108_
*155 _0109_
*156 _0110_
*157 _0111_
*158 _0112_
*159 _0113_
*160 _0114_
*161 _0115_
*162 _0116_
*163 _0117_
*164 _0118_
*165 _0119_
*166 _0120_
*167 _0121_
*168 _0122_
*169 _0123_
*170 _0124_
*171 _0125_
*172 _0126_
*173 _0127_
*174 _0128_
*175 _0129_
*176 _0130_
*177 _0131_
*178 _0132_
*179 _0133_
*180 _0134_
*181 _0135_
*182 _0136_
*183 _0137_
*184 _0138_
*185 _0139_
*186 _0140_
*187 _0141_
*188 _0142_
*189 _0143_
*190 _0144_
*191 _0145_
*192 _0146_
*193 _0147_
*194 _0148_
*195 _0149_
*196 _0150_
*197 _0151_
*198 _0152_
*199 _0153_
*200 _0154_
*201 _0155_
*202 _0156_
*203 _0157_
*204 _0158_
*205 _0159_
*206 _0160_
*207 _0161_
*208 _0162_
*209 _0163_
*210 _0164_
*211 _0165_
*212 _0166_
*213 _0167_
*214 _0168_
*215 _0169_
*216 _0170_
*217 _0171_
*218 _0172_
*219 _0173_
*220 _0174_
*221 _0175_
*222 _0176_
*223 _0177_
*224 _0178_
*225 _0179_
*226 _0180_
*227 _0181_
*228 _0182_
*229 _0183_
*230 _0184_
*231 _0185_
*232 _0186_
*233 _0187_
*234 _0188_
*235 _0189_
*236 _0190_
*237 _0191_
*238 _0192_
*239 _0193_
*240 _0194_
*241 _0195_
*242 _0196_
*243 _0197_
*244 _0198_
*245 _0199_
*246 _0200_
*247 _0201_
*248 _0202_
*249 _0203_
*250 _0204_
*251 _0205_
*252 _0206_
*253 _0207_
*254 _0208_
*255 _0209_
*256 _0210_
*257 _0211_
*258 _0212_
*259 _0213_
*260 _0214_
*261 _0215_
*262 _0216_
*263 _0217_
*264 _0218_
*265 _0219_
*266 _0220_
*267 _0221_
*268 _0222_
*269 _0223_
*270 _0224_
*271 _0225_
*272 _0226_
*273 _0227_
*274 _0228_
*275 _0229_
*276 _0230_
*277 _0231_
*278 _0232_
*279 _0233_
*280 _0234_
*281 _0235_
*282 _0236_
*283 _0237_
*284 _0238_
*285 _0239_
*286 _0240_
*287 _0241_
*288 _0242_
*289 _0243_
*290 _0244_
*291 _0245_
*292 _0246_
*293 _0247_
*294 _0248_
*295 _0249_
*296 _0250_
*297 _0251_
*298 _0252_
*299 _0253_
*300 _0254_
*301 _0255_
*302 _0256_
*303 _0257_
*304 _0258_
*305 _0259_
*306 _0260_
*307 _0261_
*308 _0262_
*309 _0263_
*310 _0264_
*311 _0265_
*312 _0266_
*313 _0267_
*314 _0268_
*315 _0269_
*316 _0270_
*317 _0271_
*318 _0272_
*319 _0273_
*320 _0274_
*321 _0275_
*322 _0276_
*323 _0277_
*324 _0278_
*325 _0279_
*326 _0280_
*327 _0281_
*328 _0282_
*329 _0283_
*330 _0284_
*331 _0285_
*332 _0286_
*333 _0287_
*334 _0288_
*335 _0289_
*336 _0290_
*337 _0291_
*338 _0292_
*339 _0293_
*340 _0294_
*341 _0295_
*342 _0296_
*343 _0297_
*344 _0298_
*345 _0299_
*346 _0300_
*347 _0301_
*348 _0302_
*349 _0303_
*350 _0304_
*351 _0305_
*352 _0306_
*353 _0307_
*354 _0308_
*355 _0309_
*356 _0310_
*357 _0311_
*358 _0312_
*359 _0313_
*360 _0314_
*361 _0315_
*362 _0316_
*363 _0317_
*364 _0318_
*365 _0319_
*366 _0320_
*367 _0321_
*368 _0322_
*369 _0323_
*370 _0324_
*371 _0325_
*372 _0326_
*373 _0327_
*374 _0328_
*375 _0329_
*376 _0330_
*377 _0331_
*378 _0332_
*379 _0333_
*380 _0334_
*381 _0335_
*382 _0336_
*383 _0337_
*384 _0338_
*385 _0339_
*386 _0340_
*387 _0341_
*388 _0342_
*389 _0343_
*390 _0344_
*391 _0345_
*392 _0346_
*393 _0347_
*394 _0348_
*395 _0349_
*396 _0350_
*397 _0351_
*398 _0352_
*399 _0353_
*400 _0354_
*401 _0355_
*402 _0356_
*403 _0357_
*404 _0358_
*405 _0359_
*406 _0360_
*407 _0361_
*408 _0362_
*409 _0363_
*410 _0364_
*411 _0365_
*412 _0366_
*413 _0367_
*414 _0368_
*415 _0369_
*416 _0370_
*417 _0371_
*418 _0372_
*419 _0373_
*420 _0374_
*421 _0375_
*422 _0376_
*423 _0377_
*424 _0378_
*425 _0379_
*426 _0380_
*427 _0381_
*428 _0382_
*429 _0383_
*430 _0384_
*431 _0385_
*432 _0386_
*433 _0387_
*434 _0388_
*435 _0389_
*436 _0390_
*437 _0391_
*438 _0392_
*439 _0393_
*440 _0394_
*441 _0395_
*442 _0396_
*443 _0397_
*444 _0398_
*445 _0399_
*446 _0400_
*447 _0401_
*448 _0402_
*449 _0403_
*450 _0404_
*451 _0405_
*452 _0406_
*453 _0407_
*454 _0408_
*455 _0409_
*456 _0410_
*457 _0411_
*458 _0412_
*459 _0413_
*460 _0414_
*461 _0415_
*462 _0416_
*463 _0417_
*464 _0418_
*465 _0419_
*466 _0420_
*467 _0421_
*468 _0422_
*469 _0423_
*470 _0424_
*471 _0425_
*472 _0426_
*473 _0427_
*474 _0428_
*475 _0429_
*476 _0430_
*477 _0431_
*478 _0432_
*479 _0433_
*480 _0434_
*481 _0435_
*482 _0436_
*483 _0437_
*484 _0438_
*485 _0439_
*486 _0440_
*487 _0441_
*488 _0442_
*489 _0443_
*490 _0444_
*491 _0445_
*492 _0446_
*493 _0447_
*494 _0448_
*495 _0449_
*496 _0450_
*497 _0451_
*498 _0452_
*499 _0453_
*500 _0454_
*501 _0455_
*502 _0456_
*503 _0457_
*504 _0458_
*505 _0459_
*506 _0460_
*507 _0461_
*508 _0462_
*509 _0463_
*510 _0464_
*511 _0465_
*512 _0466_
*513 _0467_
*514 _0468_
*515 _0469_
*516 _0470_
*517 _0471_
*518 _0472_
*519 _0473_
*520 _0474_
*521 _0475_
*522 _0476_
*523 _0477_
*524 _0478_
*525 _0479_
*526 _0480_
*527 _0481_
*528 _0482_
*529 _0483_
*530 _0484_
*531 _0485_
*532 _0486_
*533 _0487_
*534 _0488_
*535 _0489_
*536 _0490_
*537 _0491_
*538 _0492_
*539 _0493_
*540 _0494_
*541 _0495_
*542 _0496_
*543 _0497_
*544 _0498_
*545 _0499_
*546 _0500_
*547 _0501_
*548 _0502_
*549 _0503_
*550 _0504_
*551 _0505_
*552 _0506_
*553 _0507_
*554 _0508_
*555 _0509_
*556 _0510_
*557 _0511_
*558 _0512_
*559 _0513_
*560 _0514_
*561 _0515_
*562 _0516_
*563 _0517_
*564 _0518_
*565 _0519_
*566 _0520_
*567 _0521_
*568 _0522_
*569 _0523_
*570 _0524_
*571 _0525_
*572 _0526_
*573 _0527_
*574 _0528_
*575 _0529_
*576 _0530_
*577 _0531_
*578 _0532_
*579 _0533_
*580 _0534_
*581 _0535_
*582 _0536_
*583 _0537_
*584 _0538_
*585 _0539_
*586 _0540_
*587 _0541_
*588 _0542_
*589 _0543_
*590 _0544_
*591 _0545_
*592 _0546_
*593 _0547_
*594 _0548_
*595 _0549_
*596 _0550_
*597 _0551_
*598 _0552_
*599 _0553_
*600 _0554_
*601 _0555_
*602 _0556_
*603 _0557_
*604 _0558_
*605 _0559_
*606 _0560_
*607 _0561_
*608 _0562_
*609 _0563_
*610 _0564_
*611 _0565_
*612 _0566_
*613 _0567_
*614 _0568_
*615 _0569_
*616 _0570_
*617 _0571_
*618 _0572_
*619 _0573_
*620 _0574_
*621 _0575_
*622 _0576_
*623 _0577_
*624 _0578_
*625 _0579_
*626 _0580_
*627 _0581_
*628 _0582_
*629 _0583_
*630 _0584_
*631 _0585_
*632 _0586_
*633 _0587_
*634 _0588_
*635 _0589_
*636 _0590_
*637 _0591_
*638 _0592_
*639 _0593_
*640 _0594_
*641 _0595_
*642 _0596_
*643 _0597_
*644 _0598_
*645 _0599_
*646 _0600_
*647 _0601_
*648 _0602_
*649 _0603_
*650 _0604_
*651 _0605_
*652 _0606_
*653 _0607_
*654 _0608_
*655 _0609_
*656 _0610_
*657 _0611_
*658 _0612_
*659 _0613_
*660 _0614_
*661 _0615_
*662 _0616_
*663 _0617_
*664 _0618_
*665 _0619_
*666 _0620_
*667 _0621_
*668 _0622_
*669 _0623_
*670 _0624_
*671 _0625_
*672 _0626_
*673 _0627_
*674 _0628_
*675 _0629_
*676 _0630_
*677 _0631_
*678 _0632_
*679 _0633_
*680 _0634_
*681 _0635_
*682 _0636_
*683 _0637_
*684 _0638_
*685 _0639_
*686 _0640_
*687 _0641_
*688 _0642_
*689 _0643_
*690 _0644_
*691 _0645_
*692 _0646_
*693 _0647_
*694 _0648_
*695 _0649_
*696 _0650_
*697 _0651_
*698 _0652_
*699 _0653_
*700 _0654_
*701 _0655_
*702 _0656_
*703 _0657_
*704 _0658_
*705 _0659_
*706 _0660_
*707 _0661_
*708 _0662_
*709 _0663_
*710 _0664_
*711 _0665_
*712 _0666_
*713 _0667_
*714 _0668_
*715 _0669_
*716 _0670_
*717 _0671_
*718 _0672_
*719 _0673_
*720 _0674_
*721 _0675_
*722 _0676_
*723 _0677_
*724 _0678_
*725 _0679_
*726 _0680_
*727 _0681_
*728 _0682_
*729 _0683_
*730 _0684_
*731 _0685_
*732 _0686_
*733 _0687_
*734 _0688_
*735 _0689_
*736 _0690_
*737 _0691_
*738 _0692_
*739 _0693_
*740 _0694_
*741 _0695_
*742 _0696_
*743 _0697_
*744 _0698_
*745 _0699_
*746 _0700_
*747 _0701_
*748 _0702_
*749 _0703_
*750 _0704_
*751 _0705_
*752 _0706_
*753 _0707_
*754 _0708_
*755 _0709_
*756 _0710_
*757 _0711_
*758 _0712_
*759 _0713_
*760 _0714_
*761 _0715_
*762 _0716_
*763 _0717_
*764 _0718_
*765 _0719_
*766 _0720_
*767 _0721_
*768 _0722_
*769 _0723_
*770 clknet_0_clk
*771 clknet_2_0__leaf_clk
*772 clknet_2_1__leaf_clk
*773 clknet_2_2__leaf_clk
*774 clknet_2_3__leaf_clk
*775 eightBit_inst\.aRegister\.clk
*776 eightBit_inst\.aRegister\.load
*777 eightBit_inst\.a\[0\]
*778 eightBit_inst\.a\[1\]
*779 eightBit_inst\.a\[2\]
*780 eightBit_inst\.a\[3\]
*781 eightBit_inst\.a\[4\]
*782 eightBit_inst\.a\[5\]
*783 eightBit_inst\.a\[6\]
*784 eightBit_inst\.a\[7\]
*785 eightBit_inst\.alu\.b\[0\]
*786 eightBit_inst\.alu\.b\[1\]
*787 eightBit_inst\.alu\.b\[2\]
*788 eightBit_inst\.alu\.b\[3\]
*789 eightBit_inst\.alu\.b\[4\]
*790 eightBit_inst\.alu\.b\[5\]
*791 eightBit_inst\.alu\.b\[6\]
*792 eightBit_inst\.alu\.b\[7\]
*793 eightBit_inst\.alu\.out\[0\]
*794 eightBit_inst\.alu\.out\[1\]
*795 eightBit_inst\.alu\.out\[2\]
*796 eightBit_inst\.alu\.out\[3\]
*797 eightBit_inst\.alu\.out\[4\]
*798 eightBit_inst\.alu\.out\[5\]
*799 eightBit_inst\.alu\.out\[6\]
*800 eightBit_inst\.alu\.out\[7\]
*801 eightBit_inst\.alu\.sub
*802 eightBit_inst\.ao
*803 eightBit_inst\.bRegister\.load
*804 eightBit_inst\.ce
*805 eightBit_inst\.co
*806 eightBit_inst\.controlLogic\.hlt
*807 eightBit_inst\.controlLogic\.ii
*808 eightBit_inst\.controlLogic\.insn\[0\]
*809 eightBit_inst\.controlLogic\.insn\[1\]
*810 eightBit_inst\.controlLogic\.insn\[2\]
*811 eightBit_inst\.controlLogic\.insn\[3\]
*812 eightBit_inst\.controlLogic\.insn\[4\]
*813 eightBit_inst\.controlLogic\.insn\[5\]
*814 eightBit_inst\.controlLogic\.insn\[6\]
*815 eightBit_inst\.controlLogic\.insn\[7\]
*816 eightBit_inst\.controlLogic\.io
*817 eightBit_inst\.controlLogic\.j
*818 eightBit_inst\.controlLogic\.mi
*819 eightBit_inst\.controlLogic\.microClk\[0\]
*820 eightBit_inst\.controlLogic\.microClk\[1\]
*821 eightBit_inst\.controlLogic\.microClk\[2\]
*822 eightBit_inst\.controlLogic\.oi
*823 eightBit_inst\.controlLogic\.ri
*824 eightBit_inst\.controlLogic\.ro
*825 eightBit_inst\.controlLogic\.sumo
*826 eightBit_inst\.mainClock\.count\[0\]
*827 eightBit_inst\.mainClock\.count\[10\]
*828 eightBit_inst\.mainClock\.count\[11\]
*829 eightBit_inst\.mainClock\.count\[12\]
*830 eightBit_inst\.mainClock\.count\[13\]
*831 eightBit_inst\.mainClock\.count\[14\]
*832 eightBit_inst\.mainClock\.count\[15\]
*833 eightBit_inst\.mainClock\.count\[16\]
*834 eightBit_inst\.mainClock\.count\[17\]
*835 eightBit_inst\.mainClock\.count\[18\]
*836 eightBit_inst\.mainClock\.count\[19\]
*837 eightBit_inst\.mainClock\.count\[1\]
*838 eightBit_inst\.mainClock\.count\[20\]
*839 eightBit_inst\.mainClock\.count\[21\]
*840 eightBit_inst\.mainClock\.count\[22\]
*841 eightBit_inst\.mainClock\.count\[23\]
*842 eightBit_inst\.mainClock\.count\[24\]
*843 eightBit_inst\.mainClock\.count\[25\]
*844 eightBit_inst\.mainClock\.count\[26\]
*845 eightBit_inst\.mainClock\.count\[27\]
*846 eightBit_inst\.mainClock\.count\[28\]
*847 eightBit_inst\.mainClock\.count\[29\]
*848 eightBit_inst\.mainClock\.count\[2\]
*849 eightBit_inst\.mainClock\.count\[30\]
*850 eightBit_inst\.mainClock\.count\[31\]
*851 eightBit_inst\.mainClock\.count\[3\]
*852 eightBit_inst\.mainClock\.count\[4\]
*853 eightBit_inst\.mainClock\.count\[5\]
*854 eightBit_inst\.mainClock\.count\[6\]
*855 eightBit_inst\.mainClock\.count\[7\]
*856 eightBit_inst\.mainClock\.count\[8\]
*857 eightBit_inst\.mainClock\.count\[9\]
*858 eightBit_inst\.mainClock\.slowClk
*859 eightBit_inst\.memAddress\[0\]
*860 eightBit_inst\.memAddress\[1\]
*861 eightBit_inst\.memAddress\[2\]
*862 eightBit_inst\.memAddress\[3\]
*863 eightBit_inst\.pc\.addr\[0\]
*864 eightBit_inst\.pc\.addr\[1\]
*865 eightBit_inst\.pc\.addr\[2\]
*866 eightBit_inst\.pc\.addr\[3\]
*867 eightBit_inst\.ram\.mem\[0\]\[0\]
*868 eightBit_inst\.ram\.mem\[0\]\[1\]
*869 eightBit_inst\.ram\.mem\[0\]\[2\]
*870 eightBit_inst\.ram\.mem\[0\]\[3\]
*871 eightBit_inst\.ram\.mem\[0\]\[4\]
*872 eightBit_inst\.ram\.mem\[0\]\[5\]
*873 eightBit_inst\.ram\.mem\[0\]\[6\]
*874 eightBit_inst\.ram\.mem\[0\]\[7\]
*875 eightBit_inst\.ram\.mem\[10\]\[0\]
*876 eightBit_inst\.ram\.mem\[10\]\[1\]
*877 eightBit_inst\.ram\.mem\[10\]\[2\]
*878 eightBit_inst\.ram\.mem\[10\]\[3\]
*879 eightBit_inst\.ram\.mem\[10\]\[4\]
*880 eightBit_inst\.ram\.mem\[10\]\[5\]
*881 eightBit_inst\.ram\.mem\[10\]\[6\]
*882 eightBit_inst\.ram\.mem\[10\]\[7\]
*883 eightBit_inst\.ram\.mem\[11\]\[0\]
*884 eightBit_inst\.ram\.mem\[11\]\[1\]
*885 eightBit_inst\.ram\.mem\[11\]\[2\]
*886 eightBit_inst\.ram\.mem\[11\]\[3\]
*887 eightBit_inst\.ram\.mem\[11\]\[4\]
*888 eightBit_inst\.ram\.mem\[11\]\[5\]
*889 eightBit_inst\.ram\.mem\[11\]\[6\]
*890 eightBit_inst\.ram\.mem\[11\]\[7\]
*891 eightBit_inst\.ram\.mem\[12\]\[0\]
*892 eightBit_inst\.ram\.mem\[12\]\[1\]
*893 eightBit_inst\.ram\.mem\[12\]\[2\]
*894 eightBit_inst\.ram\.mem\[12\]\[3\]
*895 eightBit_inst\.ram\.mem\[12\]\[4\]
*896 eightBit_inst\.ram\.mem\[12\]\[5\]
*897 eightBit_inst\.ram\.mem\[12\]\[6\]
*898 eightBit_inst\.ram\.mem\[12\]\[7\]
*899 eightBit_inst\.ram\.mem\[13\]\[0\]
*900 eightBit_inst\.ram\.mem\[13\]\[1\]
*901 eightBit_inst\.ram\.mem\[13\]\[2\]
*902 eightBit_inst\.ram\.mem\[13\]\[3\]
*903 eightBit_inst\.ram\.mem\[13\]\[4\]
*904 eightBit_inst\.ram\.mem\[13\]\[5\]
*905 eightBit_inst\.ram\.mem\[13\]\[6\]
*906 eightBit_inst\.ram\.mem\[13\]\[7\]
*907 eightBit_inst\.ram\.mem\[14\]\[0\]
*908 eightBit_inst\.ram\.mem\[14\]\[1\]
*909 eightBit_inst\.ram\.mem\[14\]\[2\]
*910 eightBit_inst\.ram\.mem\[14\]\[3\]
*911 eightBit_inst\.ram\.mem\[14\]\[4\]
*912 eightBit_inst\.ram\.mem\[14\]\[5\]
*913 eightBit_inst\.ram\.mem\[14\]\[6\]
*914 eightBit_inst\.ram\.mem\[14\]\[7\]
*915 eightBit_inst\.ram\.mem\[15\]\[0\]
*916 eightBit_inst\.ram\.mem\[15\]\[1\]
*917 eightBit_inst\.ram\.mem\[15\]\[2\]
*918 eightBit_inst\.ram\.mem\[15\]\[3\]
*919 eightBit_inst\.ram\.mem\[15\]\[4\]
*920 eightBit_inst\.ram\.mem\[15\]\[5\]
*921 eightBit_inst\.ram\.mem\[15\]\[6\]
*922 eightBit_inst\.ram\.mem\[15\]\[7\]
*923 eightBit_inst\.ram\.mem\[1\]\[0\]
*924 eightBit_inst\.ram\.mem\[1\]\[1\]
*925 eightBit_inst\.ram\.mem\[1\]\[2\]
*926 eightBit_inst\.ram\.mem\[1\]\[3\]
*927 eightBit_inst\.ram\.mem\[1\]\[4\]
*928 eightBit_inst\.ram\.mem\[1\]\[5\]
*929 eightBit_inst\.ram\.mem\[1\]\[6\]
*930 eightBit_inst\.ram\.mem\[1\]\[7\]
*931 eightBit_inst\.ram\.mem\[2\]\[0\]
*932 eightBit_inst\.ram\.mem\[2\]\[1\]
*933 eightBit_inst\.ram\.mem\[2\]\[2\]
*934 eightBit_inst\.ram\.mem\[2\]\[3\]
*935 eightBit_inst\.ram\.mem\[2\]\[4\]
*936 eightBit_inst\.ram\.mem\[2\]\[5\]
*937 eightBit_inst\.ram\.mem\[2\]\[6\]
*938 eightBit_inst\.ram\.mem\[2\]\[7\]
*939 eightBit_inst\.ram\.mem\[3\]\[0\]
*940 eightBit_inst\.ram\.mem\[3\]\[1\]
*941 eightBit_inst\.ram\.mem\[3\]\[2\]
*942 eightBit_inst\.ram\.mem\[3\]\[3\]
*943 eightBit_inst\.ram\.mem\[3\]\[4\]
*944 eightBit_inst\.ram\.mem\[3\]\[5\]
*945 eightBit_inst\.ram\.mem\[3\]\[6\]
*946 eightBit_inst\.ram\.mem\[3\]\[7\]
*947 eightBit_inst\.ram\.mem\[4\]\[0\]
*948 eightBit_inst\.ram\.mem\[4\]\[1\]
*949 eightBit_inst\.ram\.mem\[4\]\[2\]
*950 eightBit_inst\.ram\.mem\[4\]\[3\]
*951 eightBit_inst\.ram\.mem\[4\]\[4\]
*952 eightBit_inst\.ram\.mem\[4\]\[5\]
*953 eightBit_inst\.ram\.mem\[4\]\[6\]
*954 eightBit_inst\.ram\.mem\[4\]\[7\]
*955 eightBit_inst\.ram\.mem\[5\]\[0\]
*956 eightBit_inst\.ram\.mem\[5\]\[1\]
*957 eightBit_inst\.ram\.mem\[5\]\[2\]
*958 eightBit_inst\.ram\.mem\[5\]\[3\]
*959 eightBit_inst\.ram\.mem\[5\]\[4\]
*960 eightBit_inst\.ram\.mem\[5\]\[5\]
*961 eightBit_inst\.ram\.mem\[5\]\[6\]
*962 eightBit_inst\.ram\.mem\[5\]\[7\]
*963 eightBit_inst\.ram\.mem\[6\]\[0\]
*964 eightBit_inst\.ram\.mem\[6\]\[1\]
*965 eightBit_inst\.ram\.mem\[6\]\[2\]
*966 eightBit_inst\.ram\.mem\[6\]\[3\]
*967 eightBit_inst\.ram\.mem\[6\]\[4\]
*968 eightBit_inst\.ram\.mem\[6\]\[5\]
*969 eightBit_inst\.ram\.mem\[6\]\[6\]
*970 eightBit_inst\.ram\.mem\[6\]\[7\]
*971 eightBit_inst\.ram\.mem\[7\]\[0\]
*972 eightBit_inst\.ram\.mem\[7\]\[1\]
*973 eightBit_inst\.ram\.mem\[7\]\[2\]
*974 eightBit_inst\.ram\.mem\[7\]\[3\]
*975 eightBit_inst\.ram\.mem\[7\]\[4\]
*976 eightBit_inst\.ram\.mem\[7\]\[5\]
*977 eightBit_inst\.ram\.mem\[7\]\[6\]
*978 eightBit_inst\.ram\.mem\[7\]\[7\]
*979 eightBit_inst\.ram\.mem\[8\]\[0\]
*980 eightBit_inst\.ram\.mem\[8\]\[1\]
*981 eightBit_inst\.ram\.mem\[8\]\[2\]
*982 eightBit_inst\.ram\.mem\[8\]\[3\]
*983 eightBit_inst\.ram\.mem\[8\]\[4\]
*984 eightBit_inst\.ram\.mem\[8\]\[5\]
*985 eightBit_inst\.ram\.mem\[8\]\[6\]
*986 eightBit_inst\.ram\.mem\[8\]\[7\]
*987 eightBit_inst\.ram\.mem\[9\]\[0\]
*988 eightBit_inst\.ram\.mem\[9\]\[1\]
*989 eightBit_inst\.ram\.mem\[9\]\[2\]
*990 eightBit_inst\.ram\.mem\[9\]\[3\]
*991 eightBit_inst\.ram\.mem\[9\]\[4\]
*992 eightBit_inst\.ram\.mem\[9\]\[5\]
*993 eightBit_inst\.ram\.mem\[9\]\[6\]
*994 eightBit_inst\.ram\.mem\[9\]\[7\]
*995 eightBit_inst\.ram\.r_data\[0\]
*996 eightBit_inst\.ram\.r_data\[1\]
*997 eightBit_inst\.ram\.r_data\[2\]
*998 eightBit_inst\.ram\.r_data\[3\]
*999 eightBit_inst\.ram\.r_data\[4\]
*1000 eightBit_inst\.ram\.r_data\[5\]
*1001 eightBit_inst\.ram\.r_data\[6\]
*1002 eightBit_inst\.ram\.r_data\[7\]
*1003 net1
*1004 net10
*1005 net11
*1006 net12
*1007 net13
*1008 net14
*1009 net15
*1010 net16
*1011 net17
*1012 net18
*1013 net19
*1014 net2
*1015 net20
*1016 net21
*1017 net22
*1018 net23
*1019 net24
*1020 net25
*1021 net26
*1022 net27
*1023 net28
*1024 net29
*1025 net3
*1026 net30
*1027 net31
*1028 net32
*1029 net33
*1030 net34
*1031 net35
*1032 net36
*1033 net37
*1034 net38
*1035 net39
*1036 net4
*1037 net40
*1038 net41
*1039 net42
*1040 net43
*1041 net44
*1042 net5
*1043 net59
*1044 net6
*1045 net60
*1046 net61
*1047 net62
*1048 net63
*1049 net64
*1050 net65
*1051 net66
*1052 net67
*1053 net68
*1054 net69
*1055 net7
*1056 net70
*1057 net71
*1058 net72
*1059 net73
*1060 net74
*1061 net75
*1062 net76
*1063 net77
*1064 net78
*1065 net79
*1066 net8
*1067 net80
*1068 net81
*1069 net82
*1070 net83
*1071 net84
*1072 net85
*1073 net86
*1074 net87
*1075 net88
*1076 net89
*1077 net9
*1078 FILLER_0_0_109
*1079 FILLER_0_0_113
*1080 FILLER_0_0_125
*1081 FILLER_0_0_137
*1082 FILLER_0_0_141
*1083 FILLER_0_0_15
*1084 FILLER_0_0_153
*1085 FILLER_0_0_165
*1086 FILLER_0_0_169
*1087 FILLER_0_0_181
*1088 FILLER_0_0_193
*1089 FILLER_0_0_197
*1090 FILLER_0_0_209
*1091 FILLER_0_0_221
*1092 FILLER_0_0_225
*1093 FILLER_0_0_237
*1094 FILLER_0_0_249
*1095 FILLER_0_0_253
*1096 FILLER_0_0_265
*1097 FILLER_0_0_27
*1098 FILLER_0_0_277
*1099 FILLER_0_0_281
*1100 FILLER_0_0_29
*1101 FILLER_0_0_293
*1102 FILLER_0_0_3
*1103 FILLER_0_0_305
*1104 FILLER_0_0_309
*1105 FILLER_0_0_321
*1106 FILLER_0_0_333
*1107 FILLER_0_0_41
*1108 FILLER_0_0_53
*1109 FILLER_0_0_57
*1110 FILLER_0_0_69
*1111 FILLER_0_0_81
*1112 FILLER_0_0_85
*1113 FILLER_0_0_97
*1114 FILLER_0_10_109
*1115 FILLER_0_10_121
*1116 FILLER_0_10_133
*1117 FILLER_0_10_139
*1118 FILLER_0_10_141
*1119 FILLER_0_10_15
*1120 FILLER_0_10_153
*1121 FILLER_0_10_165
*1122 FILLER_0_10_177
*1123 FILLER_0_10_189
*1124 FILLER_0_10_195
*1125 FILLER_0_10_197
*1126 FILLER_0_10_203
*1127 FILLER_0_10_220
*1128 FILLER_0_10_226
*1129 FILLER_0_10_243
*1130 FILLER_0_10_251
*1131 FILLER_0_10_253
*1132 FILLER_0_10_265
*1133 FILLER_0_10_27
*1134 FILLER_0_10_277
*1135 FILLER_0_10_289
*1136 FILLER_0_10_29
*1137 FILLER_0_10_3
*1138 FILLER_0_10_301
*1139 FILLER_0_10_307
*1140 FILLER_0_10_309
*1141 FILLER_0_10_321
*1142 FILLER_0_10_333
*1143 FILLER_0_10_41
*1144 FILLER_0_10_53
*1145 FILLER_0_10_65
*1146 FILLER_0_10_77
*1147 FILLER_0_10_83
*1148 FILLER_0_10_85
*1149 FILLER_0_10_97
*1150 FILLER_0_11_105
*1151 FILLER_0_11_111
*1152 FILLER_0_11_113
*1153 FILLER_0_11_125
*1154 FILLER_0_11_134
*1155 FILLER_0_11_148
*1156 FILLER_0_11_15
*1157 FILLER_0_11_185
*1158 FILLER_0_11_197
*1159 FILLER_0_11_205
*1160 FILLER_0_11_218
*1161 FILLER_0_11_264
*1162 FILLER_0_11_27
*1163 FILLER_0_11_275
*1164 FILLER_0_11_279
*1165 FILLER_0_11_281
*1166 FILLER_0_11_293
*1167 FILLER_0_11_3
*1168 FILLER_0_11_305
*1169 FILLER_0_11_317
*1170 FILLER_0_11_329
*1171 FILLER_0_11_39
*1172 FILLER_0_11_51
*1173 FILLER_0_11_55
*1174 FILLER_0_11_57
*1175 FILLER_0_11_69
*1176 FILLER_0_11_81
*1177 FILLER_0_11_93
*1178 FILLER_0_12_109
*1179 FILLER_0_12_121
*1180 FILLER_0_12_141
*1181 FILLER_0_12_15
*1182 FILLER_0_12_151
*1183 FILLER_0_12_195
*1184 FILLER_0_12_216
*1185 FILLER_0_12_27
*1186 FILLER_0_12_285
*1187 FILLER_0_12_29
*1188 FILLER_0_12_297
*1189 FILLER_0_12_3
*1190 FILLER_0_12_305
*1191 FILLER_0_12_309
*1192 FILLER_0_12_321
*1193 FILLER_0_12_333
*1194 FILLER_0_12_41
*1195 FILLER_0_12_53
*1196 FILLER_0_12_65
*1197 FILLER_0_12_77
*1198 FILLER_0_12_83
*1199 FILLER_0_12_85
*1200 FILLER_0_12_97
*1201 FILLER_0_13_105
*1202 FILLER_0_13_111
*1203 FILLER_0_13_113
*1204 FILLER_0_13_125
*1205 FILLER_0_13_133
*1206 FILLER_0_13_15
*1207 FILLER_0_13_151
*1208 FILLER_0_13_164
*1209 FILLER_0_13_178
*1210 FILLER_0_13_190
*1211 FILLER_0_13_202
*1212 FILLER_0_13_219
*1213 FILLER_0_13_223
*1214 FILLER_0_13_225
*1215 FILLER_0_13_238
*1216 FILLER_0_13_247
*1217 FILLER_0_13_27
*1218 FILLER_0_13_275
*1219 FILLER_0_13_279
*1220 FILLER_0_13_281
*1221 FILLER_0_13_293
*1222 FILLER_0_13_3
*1223 FILLER_0_13_305
*1224 FILLER_0_13_317
*1225 FILLER_0_13_329
*1226 FILLER_0_13_39
*1227 FILLER_0_13_51
*1228 FILLER_0_13_55
*1229 FILLER_0_13_57
*1230 FILLER_0_13_69
*1231 FILLER_0_13_81
*1232 FILLER_0_13_93
*1233 FILLER_0_14_109
*1234 FILLER_0_14_121
*1235 FILLER_0_14_133
*1236 FILLER_0_14_139
*1237 FILLER_0_14_141
*1238 FILLER_0_14_15
*1239 FILLER_0_14_153
*1240 FILLER_0_14_165
*1241 FILLER_0_14_169
*1242 FILLER_0_14_186
*1243 FILLER_0_14_194
*1244 FILLER_0_14_197
*1245 FILLER_0_14_218
*1246 FILLER_0_14_226
*1247 FILLER_0_14_231
*1248 FILLER_0_14_243
*1249 FILLER_0_14_251
*1250 FILLER_0_14_253
*1251 FILLER_0_14_265
*1252 FILLER_0_14_27
*1253 FILLER_0_14_277
*1254 FILLER_0_14_289
*1255 FILLER_0_14_29
*1256 FILLER_0_14_3
*1257 FILLER_0_14_301
*1258 FILLER_0_14_307
*1259 FILLER_0_14_309
*1260 FILLER_0_14_321
*1261 FILLER_0_14_333
*1262 FILLER_0_14_41
*1263 FILLER_0_14_53
*1264 FILLER_0_14_65
*1265 FILLER_0_14_77
*1266 FILLER_0_14_83
*1267 FILLER_0_14_85
*1268 FILLER_0_14_97
*1269 FILLER_0_15_105
*1270 FILLER_0_15_111
*1271 FILLER_0_15_113
*1272 FILLER_0_15_121
*1273 FILLER_0_15_127
*1274 FILLER_0_15_139
*1275 FILLER_0_15_147
*1276 FILLER_0_15_15
*1277 FILLER_0_15_153
*1278 FILLER_0_15_165
*1279 FILLER_0_15_169
*1280 FILLER_0_15_204
*1281 FILLER_0_15_208
*1282 FILLER_0_15_221
*1283 FILLER_0_15_225
*1284 FILLER_0_15_242
*1285 FILLER_0_15_254
*1286 FILLER_0_15_266
*1287 FILLER_0_15_27
*1288 FILLER_0_15_278
*1289 FILLER_0_15_281
*1290 FILLER_0_15_293
*1291 FILLER_0_15_3
*1292 FILLER_0_15_305
*1293 FILLER_0_15_317
*1294 FILLER_0_15_329
*1295 FILLER_0_15_39
*1296 FILLER_0_15_51
*1297 FILLER_0_15_55
*1298 FILLER_0_15_57
*1299 FILLER_0_15_69
*1300 FILLER_0_15_81
*1301 FILLER_0_15_93
*1302 FILLER_0_16_109
*1303 FILLER_0_16_117
*1304 FILLER_0_16_138
*1305 FILLER_0_16_144
*1306 FILLER_0_16_15
*1307 FILLER_0_16_177
*1308 FILLER_0_16_185
*1309 FILLER_0_16_189
*1310 FILLER_0_16_195
*1311 FILLER_0_16_197
*1312 FILLER_0_16_205
*1313 FILLER_0_16_222
*1314 FILLER_0_16_251
*1315 FILLER_0_16_262
*1316 FILLER_0_16_27
*1317 FILLER_0_16_274
*1318 FILLER_0_16_286
*1319 FILLER_0_16_29
*1320 FILLER_0_16_298
*1321 FILLER_0_16_3
*1322 FILLER_0_16_306
*1323 FILLER_0_16_309
*1324 FILLER_0_16_321
*1325 FILLER_0_16_333
*1326 FILLER_0_16_41
*1327 FILLER_0_16_53
*1328 FILLER_0_16_65
*1329 FILLER_0_16_77
*1330 FILLER_0_16_83
*1331 FILLER_0_16_85
*1332 FILLER_0_16_97
*1333 FILLER_0_17_105
*1334 FILLER_0_17_111
*1335 FILLER_0_17_113
*1336 FILLER_0_17_15
*1337 FILLER_0_17_178
*1338 FILLER_0_17_182
*1339 FILLER_0_17_208
*1340 FILLER_0_17_220
*1341 FILLER_0_17_246
*1342 FILLER_0_17_27
*1343 FILLER_0_17_279
*1344 FILLER_0_17_281
*1345 FILLER_0_17_293
*1346 FILLER_0_17_3
*1347 FILLER_0_17_305
*1348 FILLER_0_17_317
*1349 FILLER_0_17_329
*1350 FILLER_0_17_39
*1351 FILLER_0_17_51
*1352 FILLER_0_17_55
*1353 FILLER_0_17_57
*1354 FILLER_0_17_69
*1355 FILLER_0_17_81
*1356 FILLER_0_17_93
*1357 FILLER_0_18_109
*1358 FILLER_0_18_121
*1359 FILLER_0_18_129
*1360 FILLER_0_18_141
*1361 FILLER_0_18_15
*1362 FILLER_0_18_152
*1363 FILLER_0_18_162
*1364 FILLER_0_18_168
*1365 FILLER_0_18_180
*1366 FILLER_0_18_192
*1367 FILLER_0_18_216
*1368 FILLER_0_18_228
*1369 FILLER_0_18_246
*1370 FILLER_0_18_260
*1371 FILLER_0_18_27
*1372 FILLER_0_18_275
*1373 FILLER_0_18_287
*1374 FILLER_0_18_29
*1375 FILLER_0_18_299
*1376 FILLER_0_18_3
*1377 FILLER_0_18_307
*1378 FILLER_0_18_309
*1379 FILLER_0_18_321
*1380 FILLER_0_18_333
*1381 FILLER_0_18_41
*1382 FILLER_0_18_53
*1383 FILLER_0_18_65
*1384 FILLER_0_18_77
*1385 FILLER_0_18_83
*1386 FILLER_0_18_85
*1387 FILLER_0_18_97
*1388 FILLER_0_19_105
*1389 FILLER_0_19_111
*1390 FILLER_0_19_113
*1391 FILLER_0_19_124
*1392 FILLER_0_19_136
*1393 FILLER_0_19_148
*1394 FILLER_0_19_15
*1395 FILLER_0_19_160
*1396 FILLER_0_19_169
*1397 FILLER_0_19_177
*1398 FILLER_0_19_182
*1399 FILLER_0_19_198
*1400 FILLER_0_19_215
*1401 FILLER_0_19_221
*1402 FILLER_0_19_234
*1403 FILLER_0_19_258
*1404 FILLER_0_19_27
*1405 FILLER_0_19_270
*1406 FILLER_0_19_278
*1407 FILLER_0_19_281
*1408 FILLER_0_19_293
*1409 FILLER_0_19_3
*1410 FILLER_0_19_305
*1411 FILLER_0_19_317
*1412 FILLER_0_19_329
*1413 FILLER_0_19_39
*1414 FILLER_0_19_51
*1415 FILLER_0_19_55
*1416 FILLER_0_19_57
*1417 FILLER_0_19_69
*1418 FILLER_0_19_81
*1419 FILLER_0_19_93
*1420 FILLER_0_1_105
*1421 FILLER_0_1_111
*1422 FILLER_0_1_113
*1423 FILLER_0_1_125
*1424 FILLER_0_1_137
*1425 FILLER_0_1_149
*1426 FILLER_0_1_15
*1427 FILLER_0_1_161
*1428 FILLER_0_1_167
*1429 FILLER_0_1_169
*1430 FILLER_0_1_181
*1431 FILLER_0_1_193
*1432 FILLER_0_1_205
*1433 FILLER_0_1_217
*1434 FILLER_0_1_223
*1435 FILLER_0_1_225
*1436 FILLER_0_1_237
*1437 FILLER_0_1_249
*1438 FILLER_0_1_261
*1439 FILLER_0_1_27
*1440 FILLER_0_1_273
*1441 FILLER_0_1_279
*1442 FILLER_0_1_281
*1443 FILLER_0_1_293
*1444 FILLER_0_1_3
*1445 FILLER_0_1_305
*1446 FILLER_0_1_317
*1447 FILLER_0_1_329
*1448 FILLER_0_1_39
*1449 FILLER_0_1_51
*1450 FILLER_0_1_55
*1451 FILLER_0_1_57
*1452 FILLER_0_1_69
*1453 FILLER_0_1_81
*1454 FILLER_0_1_93
*1455 FILLER_0_20_103
*1456 FILLER_0_20_123
*1457 FILLER_0_20_128
*1458 FILLER_0_20_138
*1459 FILLER_0_20_141
*1460 FILLER_0_20_15
*1461 FILLER_0_20_153
*1462 FILLER_0_20_162
*1463 FILLER_0_20_174
*1464 FILLER_0_20_191
*1465 FILLER_0_20_195
*1466 FILLER_0_20_197
*1467 FILLER_0_20_214
*1468 FILLER_0_20_231
*1469 FILLER_0_20_241
*1470 FILLER_0_20_248
*1471 FILLER_0_20_253
*1472 FILLER_0_20_265
*1473 FILLER_0_20_27
*1474 FILLER_0_20_285
*1475 FILLER_0_20_29
*1476 FILLER_0_20_297
*1477 FILLER_0_20_3
*1478 FILLER_0_20_305
*1479 FILLER_0_20_309
*1480 FILLER_0_20_321
*1481 FILLER_0_20_333
*1482 FILLER_0_20_41
*1483 FILLER_0_20_53
*1484 FILLER_0_20_65
*1485 FILLER_0_20_77
*1486 FILLER_0_20_83
*1487 FILLER_0_20_85
*1488 FILLER_0_20_97
*1489 FILLER_0_21_111
*1490 FILLER_0_21_113
*1491 FILLER_0_21_119
*1492 FILLER_0_21_136
*1493 FILLER_0_21_15
*1494 FILLER_0_21_150
*1495 FILLER_0_21_178
*1496 FILLER_0_21_190
*1497 FILLER_0_21_198
*1498 FILLER_0_21_213
*1499 FILLER_0_21_221
*1500 FILLER_0_21_225
*1501 FILLER_0_21_245
*1502 FILLER_0_21_255
*1503 FILLER_0_21_27
*1504 FILLER_0_21_279
*1505 FILLER_0_21_284
*1506 FILLER_0_21_296
*1507 FILLER_0_21_3
*1508 FILLER_0_21_308
*1509 FILLER_0_21_320
*1510 FILLER_0_21_332
*1511 FILLER_0_21_39
*1512 FILLER_0_21_51
*1513 FILLER_0_21_55
*1514 FILLER_0_21_57
*1515 FILLER_0_21_69
*1516 FILLER_0_21_81
*1517 FILLER_0_21_93
*1518 FILLER_0_22_109
*1519 FILLER_0_22_134
*1520 FILLER_0_22_139
*1521 FILLER_0_22_15
*1522 FILLER_0_22_157
*1523 FILLER_0_22_169
*1524 FILLER_0_22_186
*1525 FILLER_0_22_194
*1526 FILLER_0_22_197
*1527 FILLER_0_22_205
*1528 FILLER_0_22_213
*1529 FILLER_0_22_241
*1530 FILLER_0_22_27
*1531 FILLER_0_22_278
*1532 FILLER_0_22_29
*1533 FILLER_0_22_290
*1534 FILLER_0_22_3
*1535 FILLER_0_22_302
*1536 FILLER_0_22_309
*1537 FILLER_0_22_321
*1538 FILLER_0_22_333
*1539 FILLER_0_22_41
*1540 FILLER_0_22_53
*1541 FILLER_0_22_65
*1542 FILLER_0_22_77
*1543 FILLER_0_22_83
*1544 FILLER_0_22_85
*1545 FILLER_0_23_113
*1546 FILLER_0_23_125
*1547 FILLER_0_23_137
*1548 FILLER_0_23_145
*1549 FILLER_0_23_15
*1550 FILLER_0_23_221
*1551 FILLER_0_23_234
*1552 FILLER_0_23_246
*1553 FILLER_0_23_259
*1554 FILLER_0_23_27
*1555 FILLER_0_23_272
*1556 FILLER_0_23_281
*1557 FILLER_0_23_293
*1558 FILLER_0_23_3
*1559 FILLER_0_23_305
*1560 FILLER_0_23_317
*1561 FILLER_0_23_329
*1562 FILLER_0_23_39
*1563 FILLER_0_23_51
*1564 FILLER_0_23_55
*1565 FILLER_0_23_57
*1566 FILLER_0_23_69
*1567 FILLER_0_23_81
*1568 FILLER_0_23_93
*1569 FILLER_0_24_109
*1570 FILLER_0_24_117
*1571 FILLER_0_24_129
*1572 FILLER_0_24_141
*1573 FILLER_0_24_15
*1574 FILLER_0_24_168