*SPEF "ieee 1481-1999"
*DESIGN "tt_um_eater_8bit"
*DATE "01:21:50 Tuesday May 07, 2024"
*VENDOR "The OpenROAD Project"
*PROGRAM "OpenROAD"
*VERSION "da0053d7b0014ab9c87ea148875ff6c2a0f9b658"
*DESIGN_FLOW "NAME_SCOPE LOCAL" "PIN_CAP NONE"
*DIVIDER /
*DELIMITER :
*BUS_DELIMITER []
*T_UNIT 1 NS
*C_UNIT 1 PF
*R_UNIT 1 OHM
*L_UNIT 1 HENRY

*NAME_MAP
*3 clk
*4 ena
*5 rst_n
*6 ui_in[0]
*7 ui_in[1]
*8 ui_in[2]
*9 ui_in[3]
*10 ui_in[4]
*11 ui_in[5]
*12 ui_in[6]
*13 ui_in[7]
*14 uio_in[0]
*15 uio_in[1]
*16 uio_in[2]
*17 uio_in[3]
*18 uio_in[4]
*19 uio_in[5]
*20 uio_in[6]
*21 uio_in[7]
*22 uio_oe[0]
*23 net65
*24 net66
*25 net67
*26 net68
*27 net69
*28 net70
*29 net71
*30 uio_out[0]
*31 uio_out[1]
*32 uio_out[2]
*33 uio_out[3]
*34 uio_out[4]
*35 uio_out[5]
*36 uio_out[6]
*37 uio_out[7]
*38 uo_out[0]
*39 net72
*40 net73
*41 net74
*42 net75
*43 net76
*44 net77
*45 net78
*46 _0000_
*47 _0001_
*48 _0002_
*49 _0003_
*50 _0004_
*51 _0005_
*52 _0006_
*53 _0007_
*54 _0008_
*55 _0009_
*56 _0010_
*57 _0011_
*58 _0012_
*59 _0013_
*60 _0014_
*61 _0015_
*62 _0016_
*63 _0017_
*64 _0018_
*65 _0019_
*66 _0020_
*67 _0021_
*68 _0022_
*69 _0023_
*70 _0024_
*71 _0025_
*72 _0026_
*73 _0027_
*74 _0028_
*75 _0029_
*76 _0030_
*77 _0031_
*78 _0032_
*79 _0033_
*80 _0034_
*81 _0035_
*82 _0036_
*83 _0037_
*84 _0038_
*85 _0039_
*86 _0040_
*87 _0041_
*88 _0042_
*89 _0043_
*90 _0044_
*91 _0045_
*92 _0046_
*93 _0047_
*94 _0048_
*95 _0049_
*96 _0050_
*97 _0051_
*98 _0052_
*99 _0053_
*100 _0054_
*101 _0055_
*102 _0056_
*103 _0057_
*104 _0058_
*105 _0059_
*106 _0060_
*107 _0061_
*108 _0062_
*109 _0063_
*110 _0064_
*111 _0065_
*112 _0066_
*113 _0067_
*114 _0068_
*115 _0069_
*116 _0070_
*117 _0071_
*118 _0072_
*119 _0073_
*120 _0074_
*121 _0075_
*122 _0076_
*123 _0077_
*124 _0078_
*125 _0079_
*126 _0080_
*127 _0081_
*128 _0082_
*129 _0083_
*130 _0084_
*131 _0085_
*132 _0086_
*133 _0087_
*134 _0088_
*135 _0089_
*136 _0090_
*137 _0091_
*138 _0092_
*139 _0093_
*140 _0094_
*141 _0095_
*142 _0096_
*143 _0097_
*144 _0098_
*145 _0099_
*146 _0100_
*147 _0101_
*148 _0102_
*149 _0103_
*150 _0104_
*151 _0105_
*152 _0106_
*153 _0107_
*154 _0108_
*155 _0109_
*156 _0110_
*157 _0111_
*158 _0112_
*159 _0113_
*160 _0114_
*161 _0115_
*162 _0116_
*163 _0117_
*164 _0118_
*165 _0119_
*166 _0120_
*167 _0121_
*168 _0122_
*169 _0123_
*170 _0124_
*171 _0125_
*172 _0126_
*173 _0127_
*174 _0128_
*175 _0129_
*176 _0130_
*177 _0131_
*178 _0132_
*179 _0133_
*180 _0134_
*181 _0135_
*182 _0136_
*183 _0137_
*184 _0138_
*185 _0139_
*186 _0140_
*187 _0141_
*188 _0142_
*189 _0143_
*190 _0144_
*191 _0145_
*192 _0146_
*193 _0147_
*194 _0148_
*195 _0149_
*196 _0150_
*197 _0151_
*198 _0152_
*199 _0153_
*200 _0154_
*201 _0155_
*202 _0156_
*203 _0157_
*204 _0158_
*205 _0159_
*206 _0160_
*207 _0161_
*208 _0162_
*209 _0163_
*210 _0164_
*211 _0165_
*212 _0166_
*213 _0167_
*214 _0168_
*215 _0169_
*216 _0170_
*217 _0171_
*218 _0172_
*219 _0173_
*220 _0174_
*221 _0175_
*222 _0176_
*223 _0177_
*224 _0178_
*225 _0179_
*226 _0180_
*227 _0181_
*228 _0182_
*229 _0183_
*230 _0184_
*231 _0185_
*232 _0186_
*233 _0187_
*234 _0188_
*235 _0189_
*236 _0190_
*237 _0191_
*238 _0192_
*239 _0193_
*240 _0194_
*241 _0195_
*242 _0196_
*243 _0197_
*244 _0198_
*245 _0199_
*246 _0200_
*247 _0201_
*248 _0202_
*249 _0203_
*250 _0204_
*251 _0205_
*252 _0206_
*253 _0207_
*254 _0208_
*255 _0209_
*256 _0210_
*257 _0211_
*258 _0212_
*259 _0213_
*260 _0214_
*261 _0215_
*262 _0216_
*263 _0217_
*264 _0218_
*265 _0219_
*266 _0220_
*267 _0221_
*268 _0222_
*269 _0223_
*270 _0224_
*271 _0225_
*272 _0226_
*273 _0227_
*274 _0228_
*275 _0229_
*276 _0230_
*277 _0231_
*278 _0232_
*279 _0233_
*280 _0234_
*281 _0235_
*282 _0236_
*283 _0237_
*284 _0238_
*285 _0239_
*286 _0240_
*287 _0241_
*288 _0242_
*289 _0243_
*290 _0244_
*291 _0245_
*292 _0246_
*293 _0247_
*294 _0248_
*295 _0249_
*296 _0250_
*297 _0251_
*298 _0252_
*299 _0253_
*300 _0254_
*301 _0255_
*302 _0256_
*303 _0257_
*304 _0258_
*305 _0259_
*306 _0260_
*307 _0261_
*308 _0262_
*309 _0263_
*310 _0264_
*311 _0265_
*312 _0266_
*313 _0267_
*314 _0268_
*315 _0269_
*316 _0270_
*317 _0271_
*318 _0272_
*319 _0273_
*320 _0274_
*321 _0275_
*322 _0276_
*323 _0277_
*324 _0278_
*325 _0279_
*326 _0280_
*327 _0281_
*328 _0282_
*329 _0283_
*330 _0284_
*331 _0285_
*332 _0286_
*333 _0287_
*334 _0288_
*335 _0289_
*336 _0290_
*337 _0291_
*338 _0292_
*339 _0293_
*340 _0294_
*341 _0295_
*342 _0296_
*343 _0297_
*344 _0298_
*345 _0299_
*346 _0300_
*347 _0301_
*348 _0302_
*349 _0303_
*350 _0304_
*351 _0305_
*352 _0306_
*353 _0307_
*354 _0308_
*355 _0309_
*356 _0310_
*357 _0311_
*358 _0312_
*359 _0313_
*360 _0314_
*361 _0315_
*362 _0316_
*363 _0317_
*364 _0318_
*365 _0319_
*366 _0320_
*367 _0321_
*368 _0322_
*369 _0323_
*370 _0324_
*371 _0325_
*372 _0326_
*373 _0327_
*374 _0328_
*375 _0329_
*376 _0330_
*377 _0331_
*378 _0332_
*379 _0333_
*380 _0334_
*381 _0335_
*382 _0336_
*383 _0337_
*384 _0338_
*385 _0339_
*386 _0340_
*387 _0341_
*388 _0342_
*389 _0343_
*390 _0344_
*391 _0345_
*392 _0346_
*393 _0347_
*394 _0348_
*395 _0349_
*396 _0350_
*397 _0351_
*398 _0352_
*399 _0353_
*400 _0354_
*401 _0355_
*402 _0356_
*403 _0357_
*404 _0358_
*405 _0359_
*406 _0360_
*407 _0361_
*408 _0362_
*409 _0363_
*410 _0364_
*411 _0365_
*412 _0366_
*413 _0367_
*414 _0368_
*415 _0369_
*416 _0370_
*417 _0371_
*418 _0372_
*419 _0373_
*420 _0374_
*421 _0375_
*422 _0376_
*423 _0377_
*424 _0378_
*425 _0379_
*426 _0380_
*427 _0381_
*428 _0382_
*429 _0383_
*430 _0384_
*431 _0385_
*432 _0386_
*433 _0387_
*434 _0388_
*435 _0389_
*436 _0390_
*437 _0391_
*438 _0392_
*439 _0393_
*440 _0394_
*441 _0395_
*442 _0396_
*443 _0397_
*444 _0398_
*445 _0399_
*446 _0400_
*447 _0401_
*448 _0402_
*449 _0403_
*450 _0404_
*451 _0405_
*452 _0406_
*453 _0407_
*454 _0408_
*455 _0409_
*456 _0410_
*457 _0411_
*458 _0412_
*459 _0413_
*460 _0414_
*461 _0415_
*462 _0416_
*463 _0417_
*464 _0418_
*465 _0419_
*466 _0420_
*467 _0421_
*468 _0422_
*469 _0423_
*470 _0424_
*471 _0425_
*472 _0426_
*473 _0427_
*474 _0428_
*475 _0429_
*476 _0430_
*477 _0431_
*478 _0432_
*479 _0433_
*480 _0434_
*481 _0435_
*482 _0436_
*483 _0437_
*484 _0438_
*485 _0439_
*486 _0440_
*487 _0441_
*488 _0442_
*489 _0443_
*490 _0444_
*491 _0445_
*492 _0446_
*493 _0447_
*494 _0448_
*495 _0449_
*496 _0450_
*497 _0451_
*498 _0452_
*499 _0453_
*500 _0454_
*501 _0455_
*502 _0456_
*503 _0457_
*504 _0458_
*505 _0459_
*506 _0460_
*507 _0461_
*508 _0462_
*509 _0463_
*510 _0464_
*511 _0465_
*512 _0466_
*513 _0467_
*514 _0468_
*515 _0469_
*516 _0470_
*517 _0471_
*518 _0472_
*519 _0473_
*520 _0474_
*521 _0475_
*522 _0476_
*523 _0477_
*524 _0478_
*525 _0479_
*526 _0480_
*527 _0481_
*528 _0482_
*529 _0483_
*530 _0484_
*531 _0485_
*532 _0486_
*533 _0487_
*534 _0488_
*535 _0489_
*536 _0490_
*537 _0491_
*538 _0492_
*539 _0493_
*540 _0494_
*541 _0495_
*542 _0496_
*543 _0497_
*544 _0498_
*545 _0499_
*546 _0500_
*547 _0501_
*548 _0502_
*549 _0503_
*550 _0504_
*551 _0505_
*552 _0506_
*553 _0507_
*554 _0508_
*555 _0509_
*556 _0510_
*557 _0511_
*558 _0512_
*559 _0513_
*560 _0514_
*561 _0515_
*562 _0516_
*563 _0517_
*564 _0518_
*565 _0519_
*566 _0520_
*567 _0521_
*568 _0522_
*569 _0523_
*570 _0524_
*571 _0525_
*572 _0526_
*573 _0527_
*574 _0528_
*575 _0529_
*576 _0530_
*577 _0531_
*578 _0532_
*579 _0533_
*580 _0534_
*581 _0535_
*582 _0536_
*583 _0537_
*584 _0538_
*585 _0539_
*586 _0540_
*587 _0541_
*588 _0542_
*589 _0543_
*590 _0544_
*591 _0545_
*592 _0546_
*593 _0547_
*594 _0548_
*595 _0549_
*596 _0550_
*597 _0551_
*598 _0552_
*599 _0553_
*600 _0554_
*601 _0555_
*602 _0556_
*603 _0557_
*604 _0558_
*605 _0559_
*606 _0560_
*607 _0561_
*608 _0562_
*609 _0563_
*610 _0564_
*611 _0565_
*612 _0566_
*613 _0567_
*614 _0568_
*615 _0569_
*616 _0570_
*617 _0571_
*618 _0572_
*619 _0573_
*620 _0574_
*621 _0575_
*622 _0576_
*623 _0577_
*624 _0578_
*625 _0579_
*626 _0580_
*627 _0581_
*628 _0582_
*629 _0583_
*630 _0584_
*631 _0585_
*632 _0586_
*633 _0587_
*634 _0588_
*635 _0589_
*636 _0590_
*637 _0591_
*638 _0592_
*639 _0593_
*640 _0594_
*641 _0595_
*642 _0596_
*643 _0597_
*644 _0598_
*645 _0599_
*646 _0600_
*647 _0601_
*648 _0602_
*649 _0603_
*650 _0604_
*651 _0605_
*652 _0606_
*653 _0607_
*654 _0608_
*655 _0609_
*656 _0610_
*657 _0611_
*658 _0612_
*659 _0613_
*660 _0614_
*661 _0615_
*662 _0616_
*663 _0617_
*664 _0618_
*665 _0619_
*666 _0620_
*667 _0621_
*668 _0622_
*669 _0623_
*670 _0624_
*671 _0625_
*672 _0626_
*673 _0627_
*674 _0628_
*675 _0629_
*676 _0630_
*677 _0631_
*678 _0632_
*679 _0633_
*680 _0634_
*681 _0635_
*682 _0636_
*683 _0637_
*684 _0638_
*685 _0639_
*686 _0640_
*687 _0641_
*688 _0642_
*689 _0643_
*690 _0644_
*691 _0645_
*692 _0646_
*693 _0647_
*694 _0648_
*695 _0649_
*696 _0650_
*697 _0651_
*698 _0652_
*699 _0653_
*700 _0654_
*701 _0655_
*702 _0656_
*703 _0657_
*704 _0658_
*705 _0659_
*706 _0660_
*707 _0661_
*708 _0662_
*709 _0663_
*710 _0664_
*711 _0665_
*712 _0666_
*713 _0667_
*714 _0668_
*715 _0669_
*716 _0670_
*717 _0671_
*718 _0672_
*719 _0673_
*720 _0674_
*721 _0675_
*722 _0676_
*723 _0677_
*724 _0678_
*725 _0679_
*726 _0680_
*727 _0681_
*728 _0682_
*729 _0683_
*730 _0684_
*731 _0685_
*732 _0686_
*733 _0687_
*734 _0688_
*735 _0689_
*736 _0690_
*737 _0691_
*738 _0692_
*739 _0693_
*740 _0694_
*741 _0695_
*742 _0696_
*743 _0697_
*744 _0698_
*745 _0699_
*746 _0700_
*747 _0701_
*748 _0702_
*749 _0703_
*750 _0704_
*751 _0705_
*752 _0706_
*753 _0707_
*754 _0708_
*755 _0709_
*756 _0710_
*757 _0711_
*758 _0712_
*759 _0713_
*760 _0714_
*761 _0715_
*762 _0716_
*763 _0717_
*764 _0718_
*765 _0719_
*766 _0720_
*767 _0721_
*768 _0722_
*769 _0723_
*770 _0724_
*771 _0725_
*772 _0726_
*773 _0727_
*774 _0728_
*775 _0729_
*776 _0730_
*777 _0731_
*778 _0732_
*779 _0733_
*780 _0734_
*781 _0735_
*782 _0736_
*783 _0737_
*784 _0738_
*785 _0739_
*786 _0740_
*787 _0741_
*788 _0742_
*789 _0743_
*790 _0744_
*791 _0745_
*792 _0746_
*793 _0747_
*794 _0748_
*795 _0749_
*796 _0750_
*797 _0751_
*798 _0752_
*799 _0753_
*800 _0754_
*801 _0755_
*802 _0756_
*803 _0757_
*804 _0758_
*805 _0759_
*806 _0760_
*807 _0761_
*808 _0762_
*809 _0763_
*810 _0764_
*811 _0765_
*812 _0766_
*813 _0767_
*814 _0768_
*815 _0769_
*816 _0770_
*817 _0771_
*818 _0772_
*819 _0773_
*820 _0774_
*821 _0775_
*822 _0776_
*823 _0777_
*824 _0778_
*825 _0779_
*826 _0780_
*827 _0781_
*828 _0782_
*829 _0783_
*830 _0784_
*831 _0785_
*832 _0786_
*833 _0787_
*834 _0788_
*835 _0789_
*836 _0790_
*837 _0791_
*838 _0792_
*839 _0793_
*840 _0794_
*841 _0795_
*842 _0796_
*843 _0797_
*844 _0798_
*845 _0799_
*846 _0800_
*847 _0801_
*848 _0802_
*849 _0803_
*850 _0804_
*851 _0805_
*852 _0806_
*853 _0807_
*854 _0808_
*855 _0809_
*856 _0810_
*857 _0811_
*858 _0812_
*859 _0813_
*860 _0814_
*861 _0815_
*862 _0816_
*863 _0817_
*864 _0818_
*865 _0819_
*866 _0820_
*867 _0821_
*868 _0822_
*869 _0823_
*870 _0824_
*871 _0825_
*872 _0826_
*873 _0827_
*874 _0828_
*875 _0829_
*876 _0830_
*877 _0831_
*878 _0832_
*879 _0833_
*880 _0834_
*881 _0835_
*882 _0836_
*883 _0837_
*884 _0838_
*885 _0839_
*886 _0840_
*887 _0841_
*888 _0842_
*889 _0843_
*890 _0844_
*891 _0845_
*892 _0846_
*893 _0847_
*894 _0848_
*895 _0849_
*896 _0850_
*897 _0851_
*898 _0852_
*899 _0853_
*900 _0854_
*901 _0855_
*902 _0856_
*903 _0857_
*904 _0858_
*905 _0859_
*906 _0860_
*907 _0861_
*908 _0862_
*909 _0863_
*910 _0864_
*911 _0865_
*912 _0866_
*913 _0867_
*914 _0868_
*915 _0869_
*916 _0870_
*917 _0871_
*918 _0872_
*919 _0873_
*920 _0874_
*921 _0875_
*922 _0876_
*923 _0877_
*924 _0878_
*925 _0879_
*926 _0880_
*927 _0881_
*928 _0882_
*929 _0883_
*930 _0884_
*931 _0885_
*932 _0886_
*933 _0887_
*934 _0888_
*935 _0889_
*936 _0890_
*937 _0891_
*938 _0892_
*939 _0893_
*940 _0894_
*941 _0895_
*942 _0896_
*943 _0897_
*944 _0898_
*945 _0899_
*946 _0900_
*947 _0901_
*948 _0902_
*949 _0903_
*950 _0904_
*951 _0905_
*952 _0906_
*953 _0907_
*954 _0908_
*955 _0909_
*956 _0910_
*957 _0911_
*958 _0912_
*959 _0913_
*960 _0914_
*961 _0915_
*962 _0916_
*963 _0917_
*964 _0918_
*965 _0919_
*966 _0920_
*967 _0921_
*968 _0922_
*969 _0923_
*970 _0924_
*971 _0925_
*972 _0926_
*973 _0927_
*974 _0928_
*975 _0929_
*976 _0930_
*977 _0931_
*978 _0932_
*979 _0933_
*980 _0934_
*981 _0935_
*982 _0936_
*983 _0937_
*984 _0938_
*985 _0939_
*986 _0940_
*987 _0941_
*988 _0942_
*989 _0943_
*990 _0944_
*991 _0945_
*992 _0946_
*993 _0947_
*994 _0948_
*995 _0949_
*996 _0950_
*997 _0951_
*998 _0952_
*999 _0953_
*1000 _0954_
*1001 _0955_
*1002 _0956_
*1003 _0957_
*1004 _0958_
*1005 _0959_
*1006 _0960_
*1007 _0961_
*1008 _0962_
*1009 _0963_
*1010 _0964_
*1011 _0965_
*1012 _0966_
*1013 _0967_
*1014 _0968_
*1015 _0969_
*1016 _0970_
*1017 _0971_
*1018 _0972_
*1019 _0973_
*1020 _0974_
*1021 _0975_
*1022 _0976_
*1023 _0977_
*1024 clknet_0_clk
*1025 clknet_3_0__leaf_clk
*1026 clknet_3_1__leaf_clk
*1027 clknet_3_2__leaf_clk
*1028 clknet_3_3__leaf_clk
*1029 clknet_3_4__leaf_clk
*1030 clknet_3_5__leaf_clk
*1031 clknet_3_6__leaf_clk
*1032 clknet_3_7__leaf_clk
*1033 eightBit_inst\.aRegister\.clk
*1034 eightBit_inst\.aRegister\.load
*1035 eightBit_inst\.a\[0\]
*1036 eightBit_inst\.a\[1\]
*1037 eightBit_inst\.a\[2\]
*1038 eightBit_inst\.a\[3\]
*1039 eightBit_inst\.a\[4\]
*1040 eightBit_inst\.a\[5\]
*1041 eightBit_inst\.a\[6\]
*1042 eightBit_inst\.a\[7\]
*1043 eightBit_inst\.alu\.b\[0\]
*1044 eightBit_inst\.alu\.b\[1\]
*1045 eightBit_inst\.alu\.b\[2\]
*1046 eightBit_inst\.alu\.b\[3\]
*1047 eightBit_inst\.alu\.b\[4\]
*1048 eightBit_inst\.alu\.b\[5\]
*1049 eightBit_inst\.alu\.b\[6\]
*1050 eightBit_inst\.alu\.b\[7\]
*1051 eightBit_inst\.alu\.out\[0\]
*1052 eightBit_inst\.alu\.out\[1\]
*1053 eightBit_inst\.alu\.out\[2\]
*1054 eightBit_inst\.alu\.out\[3\]
*1055 eightBit_inst\.alu\.out\[4\]
*1056 eightBit_inst\.alu\.out\[5\]
*1057 eightBit_inst\.alu\.out\[6\]
*1058 eightBit_inst\.alu\.out\[7\]
*1059 eightBit_inst\.alu\.sub
*1060 eightBit_inst\.ao
*1061 eightBit_inst\.bRegister\.load
*1062 eightBit_inst\.ce
*1063 eightBit_inst\.co
*1064 eightBit_inst\.controlLogic\.hlt
*1065 eightBit_inst\.controlLogic\.ii
*1066 eightBit_inst\.controlLogic\.insn\[0\]
*1067 eightBit_inst\.controlLogic\.insn\[1\]
*1068 eightBit_inst\.controlLogic\.insn\[2\]
*1069 eightBit_inst\.controlLogic\.insn\[3\]
*1070 eightBit_inst\.controlLogic\.insn\[4\]
*1071 eightBit_inst\.controlLogic\.insn\[5\]
*1072 eightBit_inst\.controlLogic\.insn\[6\]
*1073 eightBit_inst\.controlLogic\.insn\[7\]
*1074 eightBit_inst\.controlLogic\.io
*1075 eightBit_inst\.controlLogic\.j
*1076 eightBit_inst\.controlLogic\.mi
*1077 eightBit_inst\.controlLogic\.microClk\[0\]
*1078 eightBit_inst\.controlLogic\.microClk\[1\]
*1079 eightBit_inst\.controlLogic\.microClk\[2\]
*1080 eightBit_inst\.controlLogic\.oi
*1081 eightBit_inst\.controlLogic\.ri
*1082 eightBit_inst\.controlLogic\.ro
*1083 eightBit_inst\.controlLogic\.sumo
*1084 eightBit_inst\.countOut\[0\]
*1085 eightBit_inst\.countOut\[1\]
*1086 eightBit_inst\.countOut\[2\]
*1087 eightBit_inst\.countOut\[3\]
*1088 eightBit_inst\.mainClock\.clockUpdateCounter\[0\]
*1089 eightBit_inst\.mainClock\.clockUpdateCounter\[1\]
*1090 eightBit_inst\.mainClock\.clockUpdateCounter\[2\]
*1091 eightBit_inst\.mainClock\.clockUpdateCounter\[3\]
*1092 eightBit_inst\.mainClock\.clockUpdateCounter\[4\]
*1093 eightBit_inst\.mainClock\.count\[0\]
*1094 eightBit_inst\.mainClock\.count\[10\]
*1095 eightBit_inst\.mainClock\.count\[11\]
*1096 eightBit_inst\.mainClock\.count\[12\]
*1097 eightBit_inst\.mainClock\.count\[13\]
*1098 eightBit_inst\.mainClock\.count\[14\]
*1099 eightBit_inst\.mainClock\.count\[15\]
*1100 eightBit_inst\.mainClock\.count\[16\]
*1101 eightBit_inst\.mainClock\.count\[17\]
*1102 eightBit_inst\.mainClock\.count\[18\]
*1103 eightBit_inst\.mainClock\.count\[19\]
*1104 eightBit_inst\.mainClock\.count\[1\]
*1105 eightBit_inst\.mainClock\.count\[20\]
*1106 eightBit_inst\.mainClock\.count\[21\]
*1107 eightBit_inst\.mainClock\.count\[22\]
*1108 eightBit_inst\.mainClock\.count\[23\]
*1109 eightBit_inst\.mainClock\.count\[24\]
*1110 eightBit_inst\.mainClock\.count\[25\]
*1111 eightBit_inst\.mainClock\.count\[26\]
*1112 eightBit_inst\.mainClock\.count\[27\]
*1113 eightBit_inst\.mainClock\.count\[28\]
*1114 eightBit_inst\.mainClock\.count\[29\]
*1115 eightBit_inst\.mainClock\.count\[2\]
*1116 eightBit_inst\.mainClock\.count\[30\]
*1117 eightBit_inst\.mainClock\.count\[31\]
*1118 eightBit_inst\.mainClock\.count\[3\]
*1119 eightBit_inst\.mainClock\.count\[4\]
*1120 eightBit_inst\.mainClock\.count\[5\]
*1121 eightBit_inst\.mainClock\.count\[6\]
*1122 eightBit_inst\.mainClock\.count\[7\]
*1123 eightBit_inst\.mainClock\.count\[8\]
*1124 eightBit_inst\.mainClock\.count\[9\]
*1125 eightBit_inst\.mainClock\.edge_detect\.a_ff
*1126 eightBit_inst\.mainClock\.maxCount\[0\]
*1127 eightBit_inst\.mainClock\.maxCount\[10\]
*1128 eightBit_inst\.mainClock\.maxCount\[11\]
*1129 eightBit_inst\.mainClock\.maxCount\[12\]
*1130 eightBit_inst\.mainClock\.maxCount\[13\]
*1131 eightBit_inst\.mainClock\.maxCount\[14\]
*1132 eightBit_inst\.mainClock\.maxCount\[15\]
*1133 eightBit_inst\.mainClock\.maxCount\[16\]
*1134 eightBit_inst\.mainClock\.maxCount\[17\]
*1135 eightBit_inst\.mainClock\.maxCount\[18\]
*1136 eightBit_inst\.mainClock\.maxCount\[19\]
*1137 eightBit_inst\.mainClock\.maxCount\[1\]
*1138 eightBit_inst\.mainClock\.maxCount\[20\]
*1139 eightBit_inst\.mainClock\.maxCount\[21\]
*1140 eightBit_inst\.mainClock\.maxCount\[22\]
*1141 eightBit_inst\.mainClock\.maxCount\[23\]
*1142 eightBit_inst\.mainClock\.maxCount\[24\]
*1143 eightBit_inst\.mainClock\.maxCount\[25\]
*1144 eightBit_inst\.mainClock\.maxCount\[26\]
*1145 eightBit_inst\.mainClock\.maxCount\[27\]
*1146 eightBit_inst\.mainClock\.maxCount\[28\]
*1147 eightBit_inst\.mainClock\.maxCount\[29\]
*1148 eightBit_inst\.mainClock\.maxCount\[2\]
*1149 eightBit_inst\.mainClock\.maxCount\[30\]
*1150 eightBit_inst\.mainClock\.maxCount\[31\]
*1151 eightBit_inst\.mainClock\.maxCount\[3\]
*1152 eightBit_inst\.mainClock\.maxCount\[4\]
*1153 eightBit_inst\.mainClock\.maxCount\[5\]
*1154 eightBit_inst\.mainClock\.maxCount\[6\]
*1155 eightBit_inst\.mainClock\.maxCount\[7\]
*1156 eightBit_inst\.mainClock\.maxCount\[8\]
*1157 eightBit_inst\.mainClock\.maxCount\[9\]
*1158 eightBit_inst\.mainClock\.slowClkInt
*1159 eightBit_inst\.memAddress\[0\]
*1160 eightBit_inst\.memAddress\[1\]
*1161 eightBit_inst\.memAddress\[2\]
*1162 eightBit_inst\.memAddress\[3\]
*1163 eightBit_inst\.ram\.mem\[0\]\[0\]
*1164 eightBit_inst\.ram\.mem\[0\]\[1\]
*1165 eightBit_inst\.ram\.mem\[0\]\[2\]
*1166 eightBit_inst\.ram\.mem\[0\]\[3\]
*1167 eightBit_inst\.ram\.mem\[0\]\[4\]
*1168 eightBit_inst\.ram\.mem\[0\]\[5\]
*1169 eightBit_inst\.ram\.mem\[0\]\[6\]
*1170 eightBit_inst\.ram\.mem\[0\]\[7\]
*1171 eightBit_inst\.ram\.mem\[10\]\[0\]
*1172 eightBit_inst\.ram\.mem\[10\]\[1\]
*1173 eightBit_inst\.ram\.mem\[10\]\[2\]
*1174 eightBit_inst\.ram\.mem\[10\]\[3\]
*1175 eightBit_inst\.ram\.mem\[10\]\[4\]
*1176 eightBit_inst\.ram\.mem\[10\]\[5\]
*1177 eightBit_inst\.ram\.mem\[10\]\[6\]
*1178 eightBit_inst\.ram\.mem\[10\]\[7\]
*1179 eightBit_inst\.ram\.mem\[11\]\[0\]
*1180 eightBit_inst\.ram\.mem\[11\]\[1\]
*1181 eightBit_inst\.ram\.mem\[11\]\[2\]
*1182 eightBit_inst\.ram\.mem\[11\]\[3\]
*1183 eightBit_inst\.ram\.mem\[11\]\[4\]
*1184 eightBit_inst\.ram\.mem\[11\]\[5\]
*1185 eightBit_inst\.ram\.mem\[11\]\[6\]
*1186 eightBit_inst\.ram\.mem\[11\]\[7\]
*1187 eightBit_inst\.ram\.mem\[12\]\[0\]
*1188 eightBit_inst\.ram\.mem\[12\]\[1\]
*1189 eightBit_inst\.ram\.mem\[12\]\[2\]
*1190 eightBit_inst\.ram\.mem\[12\]\[3\]
*1191 eightBit_inst\.ram\.mem\[12\]\[4\]
*1192 eightBit_inst\.ram\.mem\[12\]\[5\]
*1193 eightBit_inst\.ram\.mem\[12\]\[6\]
*1194 eightBit_inst\.ram\.mem\[12\]\[7\]
*1195 eightBit_inst\.ram\.mem\[13\]\[0\]
*1196 eightBit_inst\.ram\.mem\[13\]\[1\]
*1197 eightBit_inst\.ram\.mem\[13\]\[2\]
*1198 eightBit_inst\.ram\.mem\[13\]\[3\]
*1199 eightBit_inst\.ram\.mem\[13\]\[4\]
*1200 eightBit_inst\.ram\.mem\[13\]\[5\]
*1201 eightBit_inst\.ram\.mem\[13\]\[6\]
*1202 eightBit_inst\.ram\.mem\[13\]\[7\]
*1203 eightBit_inst\.ram\.mem\[14\]\[0\]
*1204 eightBit_inst\.ram\.mem\[14\]\[1\]
*1205 eightBit_inst\.ram\.mem\[14\]\[2\]
*1206 eightBit_inst\.ram\.mem\[14\]\[3\]
*1207 eightBit_inst\.ram\.mem\[14\]\[4\]
*1208 eightBit_inst\.ram\.mem\[14\]\[5\]
*1209 eightBit_inst\.ram\.mem\[14\]\[6\]
*1210 eightBit_inst\.ram\.mem\[14\]\[7\]
*1211 eightBit_inst\.ram\.mem\[15\]\[0\]
*1212 eightBit_inst\.ram\.mem\[15\]\[1\]
*1213 eightBit_inst\.ram\.mem\[15\]\[2\]
*1214 eightBit_inst\.ram\.mem\[15\]\[3\]
*1215 eightBit_inst\.ram\.mem\[15\]\[4\]
*1216 eightBit_inst\.ram\.mem\[15\]\[5\]
*1217 eightBit_inst\.ram\.mem\[15\]\[6\]
*1218 eightBit_inst\.ram\.mem\[15\]\[7\]
*1219 eightBit_inst\.ram\.mem\[1\]\[0\]
*1220 eightBit_inst\.ram\.mem\[1\]\[1\]
*1221 eightBit_inst\.ram\.mem\[1\]\[2\]
*1222 eightBit_inst\.ram\.mem\[1\]\[3\]
*1223 eightBit_inst\.ram\.mem\[1\]\[4\]
*1224 eightBit_inst\.ram\.mem\[1\]\[5\]
*1225 eightBit_inst\.ram\.mem\[1\]\[6\]
*1226 eightBit_inst\.ram\.mem\[1\]\[7\]
*1227 eightBit_inst\.ram\.mem\[2\]\[0\]
*1228 eightBit_inst\.ram\.mem\[2\]\[1\]
*1229 eightBit_inst\.ram\.mem\[2\]\[2\]
*1230 eightBit_inst\.ram\.mem\[2\]\[3\]
*1231 eightBit_inst\.ram\.mem\[2\]\[4\]
*1232 eightBit_inst\.ram\.mem\[2\]\[5\]
*1233 eightBit_inst\.ram\.mem\[2\]\[6\]
*1234 eightBit_inst\.ram\.mem\[2\]\[7\]
*1235 eightBit_inst\.ram\.mem\[3\]\[0\]
*1236 eightBit_inst\.ram\.mem\[3\]\[1\]
*1237 eightBit_inst\.ram\.mem\[3\]\[2\]
*1238 eightBit_inst\.ram\.mem\[3\]\[3\]
*1239 eightBit_inst\.ram\.mem\[3\]\[4\]
*1240 eightBit_inst\.ram\.mem\[3\]\[5\]
*1241 eightBit_inst\.ram\.mem\[3\]\[6\]
*1242 eightBit_inst\.ram\.mem\[3\]\[7\]
*1243 eightBit_inst\.ram\.mem\[4\]\[0\]
*1244 eightBit_inst\.ram\.mem\[4\]\[1\]
*1245 eightBit_inst\.ram\.mem\[4\]\[2\]
*1246 eightBit_inst\.ram\.mem\[4\]\[3\]
*1247 eightBit_inst\.ram\.mem\[4\]\[4\]
*1248 eightBit_inst\.ram\.mem\[4\]\[5\]
*1249 eightBit_inst\.ram\.mem\[4\]\[6\]
*1250 eightBit_inst\.ram\.mem\[4\]\[7\]
*1251 eightBit_inst\.ram\.mem\[5\]\[0\]
*1252 eightBit_inst\.ram\.mem\[5\]\[1\]
*1253 eightBit_inst\.ram\.mem\[5\]\[2\]
*1254 eightBit_inst\.ram\.mem\[5\]\[3\]
*1255 eightBit_inst\.ram\.mem\[5\]\[4\]
*1256 eightBit_inst\.ram\.mem\[5\]\[5\]
*1257 eightBit_inst\.ram\.mem\[5\]\[6\]
*1258 eightBit_inst\.ram\.mem\[5\]\[7\]
*1259 eightBit_inst\.ram\.mem\[6\]\[0\]
*1260 eightBit_inst\.ram\.mem\[6\]\[1\]
*1261 eightBit_inst\.ram\.mem\[6\]\[2\]
*1262 eightBit_inst\.ram\.mem\[6\]\[3\]
*1263 eightBit_inst\.ram\.mem\[6\]\[4\]
*1264 eightBit_inst\.ram\.mem\[6\]\[5\]
*1265 eightBit_inst\.ram\.mem\[6\]\[6\]
*1266 eightBit_inst\.ram\.mem\[6\]\[7\]
*1267 eightBit_inst\.ram\.mem\[7\]\[0\]
*1268 eightBit_inst\.ram\.mem\[7\]\[1\]
*1269 eightBit_inst\.ram\.mem\[7\]\[2\]
*1270 eightBit_inst\.ram\.mem\[7\]\[3\]
*1271 eightBit_inst\.ram\.mem\[7\]\[4\]
*1272 eightBit_inst\.ram\.mem\[7\]\[5\]
*1273 eightBit_inst\.ram\.mem\[7\]\[6\]
*1274 eightBit_inst\.ram\.mem\[7\]\[7\]
*1275 eightBit_inst\.ram\.mem\[8\]\[0\]
*1276 eightBit_inst\.ram\.mem\[8\]\[1\]
*1277 eightBit_inst\.ram\.mem\[8\]\[2\]
*1278 eightBit_inst\.ram\.mem\[8\]\[3\]
*1279 eightBit_inst\.ram\.mem\[8\]\[4\]
*1280 eightBit_inst\.ram\.mem\[8\]\[5\]
*1281 eightBit_inst\.ram\.mem\[8\]\[6\]
*1282 eightBit_inst\.ram\.mem\[8\]\[7\]
*1283 eightBit_inst\.ram\.mem\[9\]\[0\]
*1284 eightBit_inst\.ram\.mem\[9\]\[1\]
*1285 eightBit_inst\.ram\.mem\[9\]\[2\]
*1286 eightBit_inst\.ram\.mem\[9\]\[3\]
*1287 eightBit_inst\.ram\.mem\[9\]\[4\]
*1288 eightBit_inst\.ram\.mem\[9\]\[5\]
*1289 eightBit_inst\.ram\.mem\[9\]\[6\]
*1290 eightBit_inst\.ram\.mem\[9\]\[7\]
*1291 eightBit_inst\.ram\.r_data\[0\]
*1292 eightBit_inst\.ram\.r_data\[1\]
*1293 eightBit_inst\.ram\.r_data\[2\]
*1294 eightBit_inst\.ram\.r_data\[3\]
*1295 eightBit_inst\.ram\.r_data\[4\]
*1296 eightBit_inst\.ram\.r_data\[5\]
*1297 eightBit_inst\.ram\.r_data\[6\]
*1298 eightBit_inst\.ram\.r_data\[7\]
*1299 net1
*1300 net10
*1301 net100
*1302 net101
*1303 net102
*1304 net103
*1305 net104
*1306 net105
*1307 net106
*1308 net107
*1309 net11
*1310 net12
*1311 net13
*1312 net14
*1313 net15
*1314 net16
*1315 net17
*1316 net18
*1317 net19
*1318 net2
*1319 net20
*1320 net21
*1321 net22
*1322 net23
*1323 net24
*1324 net25
*1325 net26
*1326 net27
*1327 net28
*1328 net29
*1329 net3
*1330 net30
*1331 net31
*1332 net32
*1333 net33
*1334 net34
*1335 net35
*1336 net36
*1337 net37
*1338 net38
*1339 net39
*1340 net4
*1341 net40
*1342 net41
*1343 net42
*1344 net43
*1345 net44
*1346 net45
*1347 net46
*1348 net47
*1349 net48
*1350 net49
*1351 net5
*1352 net50
*1353 net51
*1354 net52
*1355 net53
*1356 net54
*1357 net55
*1358 net56
*1359 net57
*1360 net58
*1361 net59
*1362 net6
*1363 net60
*1364 net61
*1365 net62
*1366 net63
*1367 net64
*1368 net7
*1369 net79
*1370 net8
*1371 net80
*1372 net81
*1373 net82
*1374 net83
*1375 net84
*1376 net85
*1377 net86
*1378 net87
*1379 net88
*1380 net89
*1381 net9
*1382 net90
*1383 net91
*1384 net92
*1385 net93
*1386 net94
*1387 net95
*1388 net96
*1389 net97
*1390 net98
*1391 net99
*1392 ANTENNA_1
*1393 ANTENNA_2
*1394 ANTENNA_3
*1395 ANTENNA_4
*1396 FILLER_0_0_109
*1397 FILLER_0_0_113
*1398 FILLER_0_0_125
*1399 FILLER_0_0_137
*1400 FILLER_0_0_141
*1401 FILLER_0_0_15
*1402 FILLER_0_0_153
*1403 FILLER_0_0_165
*1404 FILLER_0_0_169
*1405 FILLER_0_0_181
*1406 FILLER_0_0_193
*1407 FILLER_0_0_197
*1408 FILLER_0_0_209
*1409 FILLER_0_0_221
*1410 FILLER_0_0_225
*1411 FILLER_0_0_237
*1412 FILLER_0_0_249
*1413 FILLER_0_0_253
*1414 FILLER_0_0_265
*1415 FILLER_0_0_27
*1416 FILLER_0_0_277
*1417 FILLER_0_0_281
*1418 FILLER_0_0_29
*1419 FILLER_0_0_293
*1420 FILLER_0_0_3
*1421 FILLER_0_0_305
*1422 FILLER_0_0_309
*1423 FILLER_0_0_321
*1424 FILLER_0_0_333
*1425 FILLER_0_0_41
*1426 FILLER_0_0_53
*1427 FILLER_0_0_57
*1428 FILLER_0_0_69
*1429 FILLER_0_0_81
*1430 FILLER_0_0_85
*1431 FILLER_0_0_97
*1432 FILLER_0_10_105
*1433 FILLER_0_10_129
*1434 FILLER_0_10_141
*1435 FILLER_0_10_15
*1436 FILLER_0_10_153
*1437 FILLER_0_10_165
*1438 FILLER_0_10_177
*1439 FILLER_0_10_189
*1440 FILLER_0_10_218
*1441 FILLER_0_10_230
*1442 FILLER_0_10_242
*1443 FILLER_0_10_250
*1444 FILLER_0_10_253
*1445 FILLER_0_10_265
*1446 FILLER_0_10_27
*1447 FILLER_0_10_277
*1448 FILLER_0_10_289
*1449 FILLER_0_10_29
*1450 FILLER_0_10_3
*1451 FILLER_0_10_301
*1452 FILLER_0_10_307
*1453 FILLER_0_10_309
*1454 FILLER_0_10_321
*1455 FILLER_0_10_333
*1456 FILLER_0_10_41
*1457 FILLER_0_10_47
*1458 FILLER_0_10_64
*1459 FILLER_0_10_76
*1460 FILLER_0_10_85
*1461 FILLER_0_10_97
*1462 FILLER_0_11_107
*1463 FILLER_0_11_111
*1464 FILLER_0_11_113
*1465 FILLER_0_11_125
*1466 FILLER_0_11_132
*1467 FILLER_0_11_140
*1468 FILLER_0_11_146
*1469 FILLER_0_11_15
*1470 FILLER_0_11_156
*1471 FILLER_0_11_187
*1472 FILLER_0_11_199
*1473 FILLER_0_11_211
*1474 FILLER_0_11_223
*1475 FILLER_0_11_225
*1476 FILLER_0_11_237
*1477 FILLER_0_11_249
*1478 FILLER_0_11_261
*1479 FILLER_0_11_27
*1480 FILLER_0_11_273
*1481 FILLER_0_11_279
*1482 FILLER_0_11_281
*1483 FILLER_0_11_293
*1484 FILLER_0_11_3
*1485 FILLER_0_11_305
*1486 FILLER_0_11_317
*1487 FILLER_0_11_329
*1488 FILLER_0_11_39
*1489 FILLER_0_11_48
*1490 FILLER_0_11_55
*1491 FILLER_0_11_66
*1492 FILLER_0_12_107
*1493 FILLER_0_12_119
*1494 FILLER_0_12_131
*1495 FILLER_0_12_139
*1496 FILLER_0_12_15
*1497 FILLER_0_12_157
*1498 FILLER_0_12_174
*1499 FILLER_0_12_178
*1500 FILLER_0_12_197
*1501 FILLER_0_12_209
*1502 FILLER_0_12_221
*1503 FILLER_0_12_233
*1504 FILLER_0_12_245
*1505 FILLER_0_12_251
*1506 FILLER_0_12_253
*1507 FILLER_0_12_265
*1508 FILLER_0_12_27
*1509 FILLER_0_12_277
*1510 FILLER_0_12_289
*1511 FILLER_0_12_29
*1512 FILLER_0_12_3
*1513 FILLER_0_12_301
*1514 FILLER_0_12_307
*1515 FILLER_0_12_309
*1516 FILLER_0_12_321
*1517 FILLER_0_12_333
*1518 FILLER_0_12_57
*1519 FILLER_0_12_82
*1520 FILLER_0_12_85
*1521 FILLER_0_12_97
*1522 FILLER_0_13_113
*1523 FILLER_0_13_124
*1524 FILLER_0_13_135
*1525 FILLER_0_13_15
*1526 FILLER_0_13_160
*1527 FILLER_0_13_164
*1528 FILLER_0_13_169
*1529 FILLER_0_13_197
*1530 FILLER_0_13_209
*1531 FILLER_0_13_221
*1532 FILLER_0_13_225
*1533 FILLER_0_13_237
*1534 FILLER_0_13_249
*1535 FILLER_0_13_261
*1536 FILLER_0_13_27
*1537 FILLER_0_13_273
*1538 FILLER_0_13_279
*1539 FILLER_0_13_281
*1540 FILLER_0_13_293
*1541 FILLER_0_13_3
*1542 FILLER_0_13_305
*1543 FILLER_0_13_317
*1544 FILLER_0_13_329
*1545 FILLER_0_13_39
*1546 FILLER_0_13_51
*1547 FILLER_0_13_55
*1548 FILLER_0_13_66
*1549 FILLER_0_13_70
*1550 FILLER_0_14_100
*1551 FILLER_0_14_137
*1552 FILLER_0_14_15
*1553 FILLER_0_14_159
*1554 FILLER_0_14_213
*1555 FILLER_0_14_225
*1556 FILLER_0_14_237
*1557 FILLER_0_14_249
*1558 FILLER_0_14_253
*1559 FILLER_0_14_265
*1560 FILLER_0_14_27
*1561 FILLER_0_14_277
*1562 FILLER_0_14_289
*1563 FILLER_0_14_29
*1564 FILLER_0_14_3
*1565 FILLER_0_14_301
*1566 FILLER_0_14_307
*1567 FILLER_0_14_309
*1568 FILLER_0_14_321
*1569 FILLER_0_14_333
*1570 FILLER_0_14_41
*1571 FILLER_0_14_45
*1572 FILLER_0_14_55
*1573 FILLER_0_14_67
*1574 FILLER_0_14_75
*1575 FILLER_0_14_82
*1576 FILLER_0_14_85
*1577 FILLER_0_15_106
*1578 FILLER_0_15_122
*1579 FILLER_0_15_127
*1580 FILLER_0_15_15
*1581 FILLER_0_15_152
*1582 FILLER_0_15_164
*1583 FILLER_0_15_169
*1584 FILLER_0_15_181
*1585 FILLER_0_15_193
*1586 FILLER_0_15_205
*1587 FILLER_0_15_217
*1588 FILLER_0_15_223
*1589 FILLER_0_15_225
*1590 FILLER_0_15_237
*1591 FILLER_0_15_249
*1592 FILLER_0_15_261
*1593 FILLER_0_15_27
*1594 FILLER_0_15_273
*1595 FILLER_0_15_279
*1596 FILLER_0_15_281
*1597 FILLER_0_15_293
*1598 FILLER_0_15_3
*1599 FILLER_0_15_305
*1600 FILLER_0_15_317
*1601 FILLER_0_15_329
*1602 FILLER_0_15_35
*1603 FILLER_0_15_54
*1604 FILLER_0_15_57
*1605 FILLER_0_15_65
*1606 FILLER_0_15_82
*1607 FILLER_0_15_94
*1608 FILLER_0_16_110
*1609 FILLER_0_16_122
*1610 FILLER_0_16_134
*1611 FILLER_0_16_141
*1612 FILLER_0_16_15
*1613 FILLER_0_16_162
*1614 FILLER_0_16_174
*1615 FILLER_0_16_182
*1616 FILLER_0_16_197
*1617 FILLER_0_16_202
*1618 FILLER_0_16_214
*1619 FILLER_0_16_226
*1620 FILLER_0_16_238
*1621 FILLER_0_16_250
*1622 FILLER_0_16_253
*1623 FILLER_0_16_265
*1624 FILLER_0_16_27
*1625 FILLER_0_16_277
*1626 FILLER_0_16_289
*1627 FILLER_0_16_29
*1628 FILLER_0_16_3
*1629 FILLER_0_16_301
*1630 FILLER_0_16_307
*1631 FILLER_0_16_309
*1632 FILLER_0_16_321
*1633 FILLER_0_16_333
*1634 FILLER_0_16_54