*SPEF "ieee 1481-1999"
*DESIGN "tt_um_TD4_Assy_KosugiSubaru"
*DATE "06:40:35 Tuesday May 28, 2024"
*VENDOR "The OpenROAD Project"
*PROGRAM "OpenROAD"
*VERSION "da0053d7b0014ab9c87ea148875ff6c2a0f9b658"
*DESIGN_FLOW "NAME_SCOPE LOCAL" "PIN_CAP NONE"
*DIVIDER /
*DELIMITER :
*BUS_DELIMITER []
*T_UNIT 1 NS
*C_UNIT 1 PF
*R_UNIT 1 OHM
*L_UNIT 1 HENRY

*NAME_MAP
*3 clk
*4 ena
*5 rst_n
*6 ui_in[0]
*7 ui_in[1]
*8 ui_in[2]
*9 ui_in[3]
*10 ui_in[4]
*11 ui_in[5]
*12 ui_in[6]
*13 ui_in[7]
*14 uio_in[0]
*15 uio_in[1]
*16 uio_in[2]
*17 uio_in[3]
*18 uio_in[4]
*19 uio_in[5]
*20 uio_in[6]
*21 uio_in[7]
*22 uio_oe[0]
*23 uio_oe[1]
*24 uio_oe[2]
*25 uio_oe[3]
*26 net16
*27 net18
*28 net19
*29 net20
*30 uio_out[0]
*31 uio_out[1]
*32 uio_out[2]
*33 uio_out[3]
*34 net17
*35 uio_out[5]
*36 uio_out[6]
*37 uio_out[7]
*38 uo_out[0]
*39 uo_out[1]
*40 uo_out[2]
*41 uo_out[3]
*42 uo_out[4]
*43 uo_out[5]
*44 uo_out[6]
*45 uo_out[7]
*46 ALU0\.co
*47 _000_
*48 _001_
*49 _002_
*50 _003_
*51 _004_
*52 _005_
*53 _006_
*54 _007_
*55 _008_
*56 _009_
*57 _010_
*58 _011_
*59 _012_
*60 _013_
*61 _014_
*62 _015_
*63 _016_
*64 _017_
*65 _018_
*66 _019_
*67 _020_
*68 _021_
*69 _022_
*70 _023_
*71 _024_
*72 _025_
*73 _026_
*74 _027_
*75 _028_
*76 _029_
*77 _030_
*78 _031_
*79 _032_
*80 _033_
*81 _034_
*82 _035_
*83 _036_
*84 _037_
*85 _038_
*86 _039_
*87 _040_
*88 _041_
*89 _042_
*90 _043_
*91 _044_
*92 _045_
*93 _046_
*94 _047_
*95 _048_
*96 _049_
*97 _050_
*98 _051_
*99 _052_
*100 _053_
*101 _054_
*102 _055_
*103 _056_
*104 _057_
*105 _058_
*106 _059_
*107 _060_
*108 _061_
*109 _062_
*110 _063_
*111 _064_
*112 _065_
*113 _066_
*114 _067_
*115 _068_
*116 _069_
*117 cf0\.out
*118 clknet_0_clk
*119 clknet_1_0__leaf_clk
*120 clknet_1_1__leaf_clk
*121 net1
*122 net10
*123 net11
*124 net12
*125 net13
*126 net14
*127 net15
*128 net2
*129 net21
*130 net22
*131 net23
*132 net24
*133 net25
*134 net26
*135 net27
*136 net28
*137 net3
*138 net4
*139 net5
*140 net6
*141 net7
*142 net8
*143 net9
*144 reg_A\.out\[0\]
*145 reg_A\.out\[1\]
*146 reg_A\.out\[2\]
*147 reg_A\.out\[3\]
*148 reg_B\.out\[0\]
*149 reg_B\.out\[1\]
*150 reg_B\.out\[2\]
*151 reg_B\.out\[3\]
*152 FILLER_0_0_109
*153 FILLER_0_0_113
*154 FILLER_0_0_125
*155 FILLER_0_0_137
*156 FILLER_0_0_141
*157 FILLER_0_0_15
*158 FILLER_0_0_153
*159 FILLER_0_0_165
*160 FILLER_0_0_169
*161 FILLER_0_0_181
*162 FILLER_0_0_193
*163 FILLER_0_0_197
*164 FILLER_0_0_209
*165 FILLER_0_0_221
*166 FILLER_0_0_225
*167 FILLER_0_0_237
*168 FILLER_0_0_249
*169 FILLER_0_0_253
*170 FILLER_0_0_265
*171 FILLER_0_0_27
*172 FILLER_0_0_277
*173 FILLER_0_0_281
*174 FILLER_0_0_29
*175 FILLER_0_0_293
*176 FILLER_0_0_3
*177 FILLER_0_0_305
*178 FILLER_0_0_309
*179 FILLER_0_0_321
*180 FILLER_0_0_333
*181 FILLER_0_0_41
*182 FILLER_0_0_53
*183 FILLER_0_0_57
*184 FILLER_0_0_69
*185 FILLER_0_0_81
*186 FILLER_0_0_85
*187 FILLER_0_0_97
*188 FILLER_0_10_109
*189 FILLER_0_10_121
*190 FILLER_0_10_133
*191 FILLER_0_10_139
*192 FILLER_0_10_141
*193 FILLER_0_10_15
*194 FILLER_0_10_153
*195 FILLER_0_10_165
*196 FILLER_0_10_177
*197 FILLER_0_10_189
*198 FILLER_0_10_195
*199 FILLER_0_10_197
*200 FILLER_0_10_209
*201 FILLER_0_10_221
*202 FILLER_0_10_233
*203 FILLER_0_10_245
*204 FILLER_0_10_251
*205 FILLER_0_10_253
*206 FILLER_0_10_265
*207 FILLER_0_10_27
*208 FILLER_0_10_277
*209 FILLER_0_10_289
*210 FILLER_0_10_29
*211 FILLER_0_10_3
*212 FILLER_0_10_301
*213 FILLER_0_10_307
*214 FILLER_0_10_309
*215 FILLER_0_10_321
*216 FILLER_0_10_333
*217 FILLER_0_10_41
*218 FILLER_0_10_53
*219 FILLER_0_10_65
*220 FILLER_0_10_77
*221 FILLER_0_10_83
*222 FILLER_0_10_85
*223 FILLER_0_10_97
*224 FILLER_0_11_105
*225 FILLER_0_11_111
*226 FILLER_0_11_113
*227 FILLER_0_11_125
*228 FILLER_0_11_137
*229 FILLER_0_11_149
*230 FILLER_0_11_15
*231 FILLER_0_11_161
*232 FILLER_0_11_167
*233 FILLER_0_11_169
*234 FILLER_0_11_181
*235 FILLER_0_11_193
*236 FILLER_0_11_205
*237 FILLER_0_11_217
*238 FILLER_0_11_223
*239 FILLER_0_11_225
*240 FILLER_0_11_237
*241 FILLER_0_11_249
*242 FILLER_0_11_261
*243 FILLER_0_11_27
*244 FILLER_0_11_273
*245 FILLER_0_11_279
*246 FILLER_0_11_281
*247 FILLER_0_11_293
*248 FILLER_0_11_3
*249 FILLER_0_11_305
*250 FILLER_0_11_317
*251 FILLER_0_11_329
*252 FILLER_0_11_39
*253 FILLER_0_11_51
*254 FILLER_0_11_55
*255 FILLER_0_11_57
*256 FILLER_0_11_69
*257 FILLER_0_11_81
*258 FILLER_0_11_93
*259 FILLER_0_12_109
*260 FILLER_0_12_121
*261 FILLER_0_12_133
*262 FILLER_0_12_139
*263 FILLER_0_12_141
*264 FILLER_0_12_15
*265 FILLER_0_12_153
*266 FILLER_0_12_165
*267 FILLER_0_12_177
*268 FILLER_0_12_189
*269 FILLER_0_12_195
*270 FILLER_0_12_197
*271 FILLER_0_12_209
*272 FILLER_0_12_221
*273 FILLER_0_12_233
*274 FILLER_0_12_245
*275 FILLER_0_12_251
*276 FILLER_0_12_253
*277 FILLER_0_12_265
*278 FILLER_0_12_27
*279 FILLER_0_12_277
*280 FILLER_0_12_289
*281 FILLER_0_12_29
*282 FILLER_0_12_3
*283 FILLER_0_12_301
*284 FILLER_0_12_307
*285 FILLER_0_12_309
*286 FILLER_0_12_321
*287 FILLER_0_12_333
*288 FILLER_0_12_41
*289 FILLER_0_12_53
*290 FILLER_0_12_65
*291 FILLER_0_12_77
*292 FILLER_0_12_83
*293 FILLER_0_12_85
*294 FILLER_0_12_97
*295 FILLER_0_13_105
*296 FILLER_0_13_111
*297 FILLER_0_13_113
*298 FILLER_0_13_125
*299 FILLER_0_13_137
*300 FILLER_0_13_149
*301 FILLER_0_13_15
*302 FILLER_0_13_161
*303 FILLER_0_13_167
*304 FILLER_0_13_169
*305 FILLER_0_13_181
*306 FILLER_0_13_193
*307 FILLER_0_13_205
*308 FILLER_0_13_217
*309 FILLER_0_13_223
*310 FILLER_0_13_225
*311 FILLER_0_13_237
*312 FILLER_0_13_249
*313 FILLER_0_13_261
*314 FILLER_0_13_27
*315 FILLER_0_13_273
*316 FILLER_0_13_279
*317 FILLER_0_13_281
*318 FILLER_0_13_293
*319 FILLER_0_13_3
*320 FILLER_0_13_305
*321 FILLER_0_13_317
*322 FILLER_0_13_329
*323 FILLER_0_13_39
*324 FILLER_0_13_51
*325 FILLER_0_13_55
*326 FILLER_0_13_57
*327 FILLER_0_13_69
*328 FILLER_0_13_81
*329 FILLER_0_13_93
*330 FILLER_0_14_109
*331 FILLER_0_14_121
*332 FILLER_0_14_133
*333 FILLER_0_14_139
*334 FILLER_0_14_141
*335 FILLER_0_14_15
*336 FILLER_0_14_153
*337 FILLER_0_14_165
*338 FILLER_0_14_177
*339 FILLER_0_14_189
*340 FILLER_0_14_195
*341 FILLER_0_14_197
*342 FILLER_0_14_209
*343 FILLER_0_14_221
*344 FILLER_0_14_233
*345 FILLER_0_14_245
*346 FILLER_0_14_251
*347 FILLER_0_14_253
*348 FILLER_0_14_265
*349 FILLER_0_14_27
*350 FILLER_0_14_277
*351 FILLER_0_14_289
*352 FILLER_0_14_29
*353 FILLER_0_14_3
*354 FILLER_0_14_301
*355 FILLER_0_14_307
*356 FILLER_0_14_309
*357 FILLER_0_14_321
*358 FILLER_0_14_333
*359 FILLER_0_14_41
*360 FILLER_0_14_53
*361 FILLER_0_14_65
*362 FILLER_0_14_77
*363 FILLER_0_14_83
*364 FILLER_0_14_85
*365 FILLER_0_14_97
*366 FILLER_0_15_105
*367 FILLER_0_15_111
*368 FILLER_0_15_113
*369 FILLER_0_15_125
*370 FILLER_0_15_137
*371 FILLER_0_15_149
*372 FILLER_0_15_15
*373 FILLER_0_15_161
*374 FILLER_0_15_167
*375 FILLER_0_15_169
*376 FILLER_0_15_181
*377 FILLER_0_15_193
*378 FILLER_0_15_205
*379 FILLER_0_15_217
*380 FILLER_0_15_223
*381 FILLER_0_15_225
*382 FILLER_0_15_237
*383 FILLER_0_15_249
*384 FILLER_0_15_261
*385 FILLER_0_15_27
*386 FILLER_0_15_273
*387 FILLER_0_15_279
*388 FILLER_0_15_281
*389 FILLER_0_15_293
*390 FILLER_0_15_3
*391 FILLER_0_15_305
*392 FILLER_0_15_317
*393 FILLER_0_15_329
*394 FILLER_0_15_39
*395 FILLER_0_15_51
*396 FILLER_0_15_55
*397 FILLER_0_15_57
*398 FILLER_0_15_69
*399 FILLER_0_15_81
*400 FILLER_0_15_93
*401 FILLER_0_16_109
*402 FILLER_0_16_121
*403 FILLER_0_16_133
*404 FILLER_0_16_139
*405 FILLER_0_16_141
*406 FILLER_0_16_15
*407 FILLER_0_16_153
*408 FILLER_0_16_165
*409 FILLER_0_16_177
*410 FILLER_0_16_189
*411 FILLER_0_16_195
*412 FILLER_0_16_197
*413 FILLER_0_16_209
*414 FILLER_0_16_221
*415 FILLER_0_16_233
*416 FILLER_0_16_245
*417 FILLER_0_16_251
*418 FILLER_0_16_253
*419 FILLER_0_16_265
*420 FILLER_0_16_27
*421 FILLER_0_16_277
*422 FILLER_0_16_289
*423 FILLER_0_16_29
*424 FILLER_0_16_3
*425 FILLER_0_16_301
*426 FILLER_0_16_307
*427 FILLER_0_16_309
*428 FILLER_0_16_321
*429 FILLER_0_16_333
*430 FILLER_0_16_41
*431 FILLER_0_16_53
*432 FILLER_0_16_65
*433 FILLER_0_16_77
*434 FILLER_0_16_83
*435 FILLER_0_16_85
*436 FILLER_0_16_97
*437 FILLER_0_17_105
*438 FILLER_0_17_111
*439 FILLER_0_17_113
*440 FILLER_0_17_125
*441 FILLER_0_17_137
*442 FILLER_0_17_149
*443 FILLER_0_17_15
*444 FILLER_0_17_161
*445 FILLER_0_17_167
*446 FILLER_0_17_169
*447 FILLER_0_17_181
*448 FILLER_0_17_193
*449 FILLER_0_17_205
*450 FILLER_0_17_217
*451 FILLER_0_17_223
*452 FILLER_0_17_225
*453 FILLER_0_17_237
*454 FILLER_0_17_249
*455 FILLER_0_17_261
*456 FILLER_0_17_27
*457 FILLER_0_17_273
*458 FILLER_0_17_279
*459 FILLER_0_17_281
*460 FILLER_0_17_293
*461 FILLER_0_17_3
*462 FILLER_0_17_305
*463 FILLER_0_17_317
*464 FILLER_0_17_329
*465 FILLER_0_17_39
*466 FILLER_0_17_51
*467 FILLER_0_17_55
*468 FILLER_0_17_57
*469 FILLER_0_17_69
*470 FILLER_0_17_81
*471 FILLER_0_17_93
*472 FILLER_0_18_109
*473 FILLER_0_18_121
*474 FILLER_0_18_133
*475 FILLER_0_18_139
*476 FILLER_0_18_141
*477 FILLER_0_18_15
*478 FILLER_0_18_153
*479 FILLER_0_18_165
*480 FILLER_0_18_177
*481 FILLER_0_18_189
*482 FILLER_0_18_195
*483 FILLER_0_18_197
*484 FILLER_0_18_209
*485 FILLER_0_18_221
*486 FILLER_0_18_233
*487 FILLER_0_18_245
*488 FILLER_0_18_251
*489 FILLER_0_18_253
*490 FILLER_0_18_265
*491 FILLER_0_18_27
*492 FILLER_0_18_277
*493 FILLER_0_18_289
*494 FILLER_0_18_29
*495 FILLER_0_18_3
*496 FILLER_0_18_301
*497 FILLER_0_18_307
*498 FILLER_0_18_309
*499 FILLER_0_18_321
*500 FILLER_0_18_333
*501 FILLER_0_18_41
*502 FILLER_0_18_53
*503 FILLER_0_18_65
*504 FILLER_0_18_77
*505 FILLER_0_18_83
*506 FILLER_0_18_85
*507 FILLER_0_18_97
*508 FILLER_0_19_105
*509 FILLER_0_19_111
*510 FILLER_0_19_113
*511 FILLER_0_19_125
*512 FILLER_0_19_137
*513 FILLER_0_19_149
*514 FILLER_0_19_15
*515 FILLER_0_19_161
*516 FILLER_0_19_167
*517 FILLER_0_19_169
*518 FILLER_0_19_181
*519 FILLER_0_19_193
*520 FILLER_0_19_205
*521 FILLER_0_19_217
*522 FILLER_0_19_223
*523 FILLER_0_19_225
*524 FILLER_0_19_237
*525 FILLER_0_19_249
*526 FILLER_0_19_261
*527 FILLER_0_19_27
*528 FILLER_0_19_273
*529 FILLER_0_19_279
*530 FILLER_0_19_281
*531 FILLER_0_19_293
*532 FILLER_0_19_3
*533 FILLER_0_19_305
*534 FILLER_0_19_317
*535 FILLER_0_19_329
*536 FILLER_0_19_39
*537 FILLER_0_19_51
*538 FILLER_0_19_55
*539 FILLER_0_19_57
*540 FILLER_0_19_69
*541 FILLER_0_19_81
*542 FILLER_0_19_93
*543 FILLER_0_1_105
*544 FILLER_0_1_111
*545 FILLER_0_1_113
*546 FILLER_0_1_125
*547 FILLER_0_1_137
*548 FILLER_0_1_149
*549 FILLER_0_1_15
*550 FILLER_0_1_161
*551 FILLER_0_1_167
*552 FILLER_0_1_169
*553 FILLER_0_1_181
*554 FILLER_0_1_193
*555 FILLER_0_1_205
*556 FILLER_0_1_217
*557 FILLER_0_1_223
*558 FILLER_0_1_225
*559 FILLER_0_1_237
*560 FILLER_0_1_249
*561 FILLER_0_1_261
*562 FILLER_0_1_27
*563 FILLER_0_1_273
*564 FILLER_0_1_279
*565 FILLER_0_1_281
*566 FILLER_0_1_293
*567 FILLER_0_1_3
*568 FILLER_0_1_305
*569 FILLER_0_1_317
*570 FILLER_0_1_329
*571 FILLER_0_1_39
*572 FILLER_0_1_51
*573 FILLER_0_1_55
*574 FILLER_0_1_57
*575 FILLER_0_1_69
*576 FILLER_0_1_81
*577 FILLER_0_1_93
*578 FILLER_0_20_109
*579 FILLER_0_20_121
*580 FILLER_0_20_133
*581 FILLER_0_20_139
*582 FILLER_0_20_141
*583 FILLER_0_20_15
*584 FILLER_0_20_153
*585 FILLER_0_20_165
*586 FILLER_0_20_177
*587 FILLER_0_20_189
*588 FILLER_0_20_195
*589 FILLER_0_20_197
*590 FILLER_0_20_209
*591 FILLER_0_20_221
*592 FILLER_0_20_233
*593 FILLER_0_20_245
*594 FILLER_0_20_251
*595 FILLER_0_20_253
*596 FILLER_0_20_265
*597 FILLER_0_20_27
*598 FILLER_0_20_277
*599 FILLER_0_20_289
*600 FILLER_0_20_29
*601 FILLER_0_20_3
*602 FILLER_0_20_301
*603 FILLER_0_20_307
*604 FILLER_0_20_309
*605 FILLER_0_20_321
*606 FILLER_0_20_333
*607 FILLER_0_20_41
*608 FILLER_0_20_53
*609 FILLER_0_20_65
*610 FILLER_0_20_77
*611 FILLER_0_20_83
*612 FILLER_0_20_85
*613 FILLER_0_20_97
*614 FILLER_0_21_105
*615 FILLER_0_21_111
*616 FILLER_0_21_113
*617 FILLER_0_21_125
*618 FILLER_0_21_137
*619 FILLER_0_21_149
*620 FILLER_0_21_15
*621 FILLER_0_21_161
*622 FILLER_0_21_167
*623 FILLER_0_21_169
*624 FILLER_0_21_181
*625 FILLER_0_21_193
*626 FILLER_0_21_205
*627 FILLER_0_21_217
*628 FILLER_0_21_223
*629 FILLER_0_21_225
*630 FILLER_0_21_237
*631 FILLER_0_21_249
*632 FILLER_0_21_261
*633 FILLER_0_21_27
*634 FILLER_0_21_273
*635 FILLER_0_21_279
*636 FILLER_0_21_281
*637 FILLER_0_21_293
*638 FILLER_0_21_3
*639 FILLER_0_21_305
*640 FILLER_0_21_317
*641 FILLER_0_21_329
*642 FILLER_0_21_39
*643 FILLER_0_21_51
*644 FILLER_0_21_55
*645 FILLER_0_21_57
*646 FILLER_0_21_69
*647 FILLER_0_21_81
*648 FILLER_0_21_93
*649 FILLER_0_22_109
*650 FILLER_0_22_121
*651 FILLER_0_22_133
*652 FILLER_0_22_139
*653 FILLER_0_22_141
*654 FILLER_0_22_15
*655 FILLER_0_22_153
*656 FILLER_0_22_165
*657 FILLER_0_22_177
*658 FILLER_0_22_189
*659 FILLER_0_22_195
*660 FILLER_0_22_197
*661 FILLER_0_22_209
*662 FILLER_0_22_221
*663 FILLER_0_22_233
*664 FILLER_0_22_245
*665 FILLER_0_22_251
*666 FILLER_0_22_253
*667 FILLER_0_22_265
*668 FILLER_0_22_27
*669 FILLER_0_22_277
*670 FILLER_0_22_289
*671 FILLER_0_22_29
*672 FILLER_0_22_3
*673 FILLER_0_22_301
*674 FILLER_0_22_307
*675 FILLER_0_22_309
*676 FILLER_0_22_321
*677 FILLER_0_22_333
*678 FILLER_0_22_41
*679 FILLER_0_22_53
*680 FILLER_0_22_65
*681 FILLER_0_22_77
*682 FILLER_0_22_83
*683 FILLER_0_22_85
*684 FILLER_0_22_97
*685 FILLER_0_23_105
*686 FILLER_0_23_111
*687 FILLER_0_23_113
*688 FILLER_0_23_125
*689 FILLER_0_23_137
*690 FILLER_0_23_149
*691 FILLER_0_23_15
*692 FILLER_0_23_161
*693 FILLER_0_23_167
*694 FILLER_0_23_169
*695 FILLER_0_23_181
*696 FILLER_0_23_193
*697 FILLER_0_23_205
*698 FILLER_0_23_217
*699 FILLER_0_23_223
*700 FILLER_0_23_225
*701 FILLER_0_23_237
*702 FILLER_0_23_249
*703 FILLER_0_23_261
*704 FILLER_0_23_27
*705 FILLER_0_23_273
*706 FILLER_0_23_279
*707 FILLER_0_23_281
*708 FILLER_0_23_293
*709 FILLER_0_23_3
*710 FILLER_0_23_305
*711 FILLER_0_23_317
*712 FILLER_0_23_329
*713 FILLER_0_23_39
*714 FILLER_0_23_51
*715 FILLER_0_23_55
*716 FILLER_0_23_57
*717 FILLER_0_23_69
*718 FILLER_0_23_81
*719 FILLER_0_23_93
*720 FILLER_0_24_109
*721 FILLER_0_24_121
*722 FILLER_0_24_133
*723 FILLER_0_24_139
*724 FILLER_0_24_141
*725 FILLER_0_24_15
*726 FILLER_0_24_153
*727 FILLER_0_24_165
*728 FILLER_0_24_177
*729 FILLER_0_24_189
*730 FILLER_0_24_195
*731 FILLER_0_24_197
*732 FILLER_0_24_209
*733 FILLER_0_24_221
*734 FILLER_0_24_233
*735 FILLER_0_24_245
*736 FILLER_0_24_251
*737 FILLER_0_24_253
*738 FILLER_0_24_265
*739 FILLER_0_24_27
*740 FILLER_0_24_277
*741 FILLER_0_24_289
*742 FILLER_0_24_29
*743 FILLER_0_24_3
*744 FILLER_0_24_301
*745 FILLER_0_24_307
*746 FILLER_0_24_309
*747 FILLER_0_24_321
*748 FILLER_0_24_333
*749 FILLER_0_24_41
*750 FILLER_0_24_53
*751 FILLER_0_24_65
*752 FILLER_0_24_77
*753 FILLER_0_24_83
*754 FILLER_0_24_85
*755 FILLER_0_24_97
*756 FILLER_0_25_105
*757 FILLER_0_25_111
*758 FILLER_0_25_113
*759 FILLER_0_25_125
*760 FILLER_0_25_137
*761 FILLER_0_25_149
*762 FILLER_0_25_15
*763 FILLER_0_25_161
*764 FILLER_0_25_167
*765 FILLER_0_25_169
*766 FILLER_0_25_181
*767 FILLER_0_25_193
*768 FILLER_0_25_205
*769 FILLER_0_25_217
*770 FILLER_0_25_223
*771 FILLER_0_25_225
*772 FILLER_0_25_237
*773 FILLER_0_25_249
*774 FILLER_0_25_261
*775 FILLER_0_25_27
*776 FILLER_0_25_273
*777 FILLER_0_25_279
*778 FILLER_0_25_281
*779 FILLER_0_25_293
*780 FILLER_0_25_3
*781 FILLER_0_25_305
*782 FILLER_0_25_317
*783 FILLER_0_25_329
*784 FILLER_0_25_39
*785 FILLER_0_25_51
*786 FILLER_0_25_55
*787 FILLER_0_25_57
*788 FILLER_0_25_69
*789 FILLER_0_25_81
*790 FILLER_0_25_93
*791 FILLER_0_26_109
*792 FILLER_0_26_121
*793 FILLER_0_26_133
*794 FILLER_0_26_139
*795 FILLER_0_26_141
*796 FILLER_0_26_15
*797 FILLER_0_26_153
*798 FILLER_0_26_165
*799 FILLER_0_26_177
*800 FILLER_0_26_189
*801 FILLER_0_26_195
*802 FILLER_0_26_197
*803 FILLER_0_26_209
*804 FILLER_0_26_221
*805 FILLER_0_26_233
*806 FILLER_0_26_245
*807 FILLER_0_26_251
*808 FILLER_0_26_253
*809 FILLER_0_26_265
*810 FILLER_0_26_27
*811 FILLER_0_26_277
*812 FILLER_0_26_289
*813 FILLER_0_26_29
*814 FILLER_0_26_3
*815 FILLER_0_26_301
*816 FILLER_0_26_307
*817 FILLER_0_26_309
*818 FILLER_0_26_321
*819 FILLER_0_26_333
*820 FILLER_0_26_41
*821 FILLER_0_26_53
*822 FILLER_0_26_65
*823 FILLER_0_26_77
*824 FILLER_0_26_83
*825 FILLER_0_26_85
*826 FILLER_0_26_97
*827 FILLER_0_27_105
*828 FILLER_0_27_111
*829 FILLER_0_27_113
*830 FILLER_0_27_125
*831 FILLER_0_27_137
*832 FILLER_0_27_149
*833 FILLER_0_27_15
*834 FILLER_0_27_161
*835 FILLER_0_27_167
*836 FILLER_0_27_169
*837 FILLER_0_27_181
*838 FILLER_0_27_193
*839 FILLER_0_27_205
*840 FILLER_0_27_217
*841 FILLER_0_27_223
*842 FILLER_0_27_225
*843 FILLER_0_27_237
*844 FILLER_0_27_249
*845 FILLER_0_27_261
*846 FILLER_0_27_27
*847 FILLER_0_27_273
*848 FILLER_0_27_279
*849 FILLER_0_27_281
*850 FILLER_0_27_293
*851 FILLER_0_27_3
*852 FILLER_0_27_305
*853 FILLER_0_27_317
*854 FILLER_0_27_329
*855 FILLER_0_27_39
*856 FILLER_0_27_51
*857 FILLER_0_27_55
*858 FILLER_0_27_57
*859 FILLER_0_27_69
*860 FILLER_0_27_81
*861 FILLER_0_27_93
*862 FILLER_0_28_109
*863 FILLER_0_28_121
*864 FILLER_0_28_133
*865 FILLER_0_28_139
*866 FILLER_0_28_141
*867 FILLER_0_28_15
*868 FILLER_0_28_153
*869 FILLER_0_28_165
*870 FILLER_0_28_177
*871 FILLER_0_28_189
*872 FILLER_0_28_195
*873 FILLER_0_28_197
*874 FILLER_0_28_209
*875 FILLER_0_28_221
*876 FILLER_0_28_233
*877 FILLER_0_28_245
*878 FILLER_0_28_251
*879 FILLER_0_28_253
*880 FILLER_0_28_265
*881 FILLER_0_28_27
*882 FILLER_0_28_277
*883 FILLER_0_28_289
*884 FILLER_0_28_29
*885 FILLER_0_28_3
*886 FILLER_0_28_301
*887 FILLER_0_28_307
*888 FILLER_0_28_309
*889 FILLER_0_28_321
*890 FILLER_0_28_333
*891 FILLER_0_28_41
*892 FILLER_0_28_53
*893 FILLER_0_28_65
*894 FILLER_0_28_77
*895 FILLER_0_28_83
*896 FILLER_0_28_85
*897 FILLER_0_28_97
*898 FILLER_0_29_105
*899 FILLER_0_29_111
*900 FILLER_0_29_113
*901 FILLER_0_29_125
*902 FILLER_0_29_137
*903 FILLER_0_29_149
*904 FILLER_0_29_15
*905 FILLER_0_29_161
*906 FILLER_0_29_167
*907 FILLER_0_29_169
*908 FILLER_0_29_181
*909 FILLER_0_29_193
*910 FILLER_0_29_205
*911 FILLER_0_29_217
*912 FILLER_0_29_223
*913 FILLER_0_29_225
*914 FILLER_0_29_237
*915 FILLER_0_29_249
*916 FILLER_0_29_261
*917 FILLER_0_29_27
*918 FILLER_0_29_273
*919 FILLER_0_29_279
*920 FILLER_0_29_281
*921 FILLER_0_29_293
*922 FILLER_0_29_3
*923 FILLER_0_29_305
*924 FILLER_0_29_317
*925 FILLER_0_29_329
*926 FILLER_0_29_39
*927 FILLER_0_29_51
*928 FILLER_0_29_55
*929 FILLER_0_29_57
*930 FILLER_0_29_69
*931 FILLER_0_29_81
*932 FILLER_0_29_93
*933 FILLER_0_2_109
*934 FILLER_0_2_121
*935 FILLER_0_2_133
*936 FILLER_0_2_139
*937 FILLER_0_2_141
*938 FILLER_0_2_15
*939 FILLER_0_2_153
*940 FILLER_0_2_165
*941 FILLER_0_2_177
*942 FILLER_0_2_189
*943 FILLER_0_2_195
*944 FILLER_0_2_197
*945 FILLER_0_2_209
*946 FILLER_0_2_221
*947 FILLER_0_2_233
*948 FILLER_0_2_245
*949 FILLER_0_2_251
*950 FILLER_0_2_253
*951 FILLER_0_2_265
*952 FILLER_0_2_27
*953 FILLER_0_2_277
*954 FILLER_0_2_289
*955 FILLER_0_2_29
*956 FILLER_0_2_3
*957 FILLER_0_2_301
*958 FILLER_0_2_307
*959 FILLER_0_2_309
*960 FILLER_0_2_321
*961 FILLER_0_2_333
*962 FILLER_0_2_41
*963 FILLER_0_2_53
*964 FILLER_0_2_65
*965 FILLER_0_2_77
*966 FILLER_0_2_83
*967 FILLER_0_2_85
*968 FILLER_0_2_97
*969 FILLER_0_30_109
*970 FILLER_0_30_121
*971 FILLER_0_30_133
*972 FILLER_0_30_139
*973 FILLER_0_30_141
*974 FILLER_0_30_15
*975 FILLER_0_30_153
*976 FILLER_0_30_165
*977 FILLER_0_30_177
*978 FILLER_0_30_189
*979 FILLER_0_30_195
*980 FILLER_0_30_197
*981 FILLER_0_30_209
*982 FILLER_0_30_221
*983 FILLER_0_30_233
*984 FILLER_0_30_245
*985 FILLER_0_30_251
*986 FILLER_0_30_253
*987 FILLER_0_30_265
*988 FILLER_0_30_27
*989 FILLER_0_30_277
*990 FILLER_0_30_289
*991 FILLER_0_30_29
*992 FILLER_0_30_3
*993 FILLER_0_30_301
*994 FILLER_0_30_307
*995 FILLER_0_30_309
*996 FILLER_0_30_321
*997 FILLER_0_30_333
*998 FILLER_0_30_41
*999 FILLER_0_30_53
*1000 FILLER_0_30_65
*1001 FILLER_0_30_77
*1002 FILLER_0_30_83
*1003 FILLER_0_30_85
*1004 FILLER_0_30_97
*1005 FILLER_0_31_105
*1006 FILLER_0_31_111
*1007 FILLER_0_31_113
*1008 FILLER_0_31_125
*1009 FILLER_0_31_137
*1010 FILLER_0_31_149
*1011 FILLER_0_31_15
*1012 FILLER_0_31_161
*1013 FILLER_0_31_167
*1014 FILLER_0_31_169
*1015 FILLER_0_31_181
*1016 FILLER_0_31_193
*1017 FILLER_0_31_205
*1018 FILLER_0_31_217
*1019 FILLER_0_31_223
*1020 FILLER_0_31_225
*1021 FILLER_0_31_237
*1022 FILLER_0_31_249
*1023 FILLER_0_31_261
*1024 FILLER_0_31_27
*1025 FILLER_0_31_273
*1026 FILLER_0_31_279
*1027 FILLER_0_31_281
*1028 FILLER_0_31_293
*1029 FILLER_0_31_3
*1030 FILLER_0_31_305
*1031 FILLER_0_31_317
*1032 FILLER_0_31_329
*1033 FILLER_0_31_39
*1034 FILLER_0_31_51
*1035 FILLER_0_31_55
*1036 FILLER_0_31_57
*1037 FILLER_0_31_69
*1038 FILLER_0_31_81
*1039 FILLER_0_31_93
*1040 FILLER_0_32_109
*1041 FILLER_0_32_121
*1042 FILLER_0_32_133
*1043 FILLER_0_32_139
*1044 FILLER_0_32_141
*1045 FILLER_0_32_15
*1046 FILLER_0_32_153
*1047 FILLER_0_32_165
*1048 FILLER_0_32_177
*1049 FILLER_0_32_189
*1050 FILLER_0_32_195
*1051 FILLER_0_32_197
*1052 FILLER_0_32_209
*1053 FILLER_0_32_221
*1054 FILLER_0_32_227
*1055 FILLER_0_32_248
*1056 FILLER_0_32_253
*1057 FILLER_0_32_265
*1058 FILLER_0_32_27
*1059 FILLER_0_32_286
*1060 FILLER_0_32_29
*1061 FILLER_0_32_298
*1062 FILLER_0_32_3
*1063 FILLER_0_32_306
*1064 FILLER_0_32_309
*1065 FILLER_0_32_321
*1066 FILLER_0_32_333
*1067 FILLER_0_32_41
*1068 FILLER_0_32_53
*1069 FILLER_0_32_65
*1070 FILLER_0_32_77
*1071 FILLER_0_32_83
*1072 FILLER_0_32_85
*1073 FILLER_0_32_97
*1074 FILLER_0_33_105
*1075 FILLER_0_33_111
*1076 FILLER_0_33_113
*1077 FILLER_0_33_125
*1078 FILLER_0_33_137
*1079 FILLER_0_33_15
*1080 FILLER_0_33_169
*1081 FILLER_0_33_181
*1082 FILLER_0_33_193
*1083 FILLER_0_33_214
*1084 FILLER_0_33_220
*1085 FILLER_0_33_245
*1086 FILLER_0_33_255
*1087 FILLER_0_33_259
*1088 FILLER_0_33_27
*1089 FILLER_0_33_281
*1090 FILLER_0_33_295
*1091 FILLER_0_33_3
*1092 FILLER_0_33_307
*1093 FILLER_0_33_315
*1094 FILLER_0_33_324
*1095 FILLER_0_33_332
*1096 FILLER_0_33_39
*1097 FILLER_0_33_51
*1098 FILLER_0_33_55
*1099 FILLER_0_33_57
*1100 FILLER_0_33_69
*1101 FILLER_0_33_81
*1102 FILLER_0_33_93
*1103 FILLER_0_34_105
*1104 FILLER_0_34_110
*1105 FILLER_0_34_123
*1106 FILLER_0_34_135
*1107 FILLER_0_34_139
*1108 FILLER_0_34_141
*1109 FILLER_0_34_149
*1110 FILLER_0_34_15
*1111 FILLER_0_34_158
*1112 FILLER_0_34_186
*1113 FILLER_0_34_192
*1114 FILLER_0_34_231
*1115 FILLER_0_34_250
*1116 FILLER_0_34_253
*1117 FILLER_0_34_27
*1118 FILLER_0_34_29
*1119 FILLER_0_34_292
*1120 FILLER_0_34_3
*1121 FILLER_0_34_329
*1122 FILLER_0_34_41
*1123 FILLER_0_34_53
*1124 FILLER_0_34_65
*1125 FILLER_0_34_77
*1126 FILLER_0_34_83
*1127 FILLER_0_34_85
*1128 FILLER_0_34_97
*1129 FILLER_0_35_136
*1130 FILLER_0_35_148
*1131 FILLER_0_35_15
*1132 FILLER_0_35_164
*1133 FILLER_0_35_184
*1134 FILLER_0_35_196
*1135 FILLER_0_35_200
*1136 FILLER_0_35_204
*1137 FILLER_0_35_260
*1138 FILLER_0_35_27
*1139 FILLER_0_35_278
*1140 FILLER_0_35_289
*1141 FILLER_0_35_3
*1142 FILLER_0_35_301
*1143 FILLER_0_35_311
*1144 FILLER_0_35_332
*1145 FILLER_0_35_39
*1146 FILLER_0_35_51
*1147 FILLER_0_35_55
*1148 FILLER_0_35_57
*1149 FILLER_0_35_69
*1150 FILLER_0_35_81
*1151 FILLER_0_36_138
*1152 FILLER_0_36_141
*1153 FILLER_0_36_149
*1154 FILLER_0_36_15
*1155 FILLER_0_36_194
*1156 FILLER_0_36_251
*1157 FILLER_0_36_256
*1158 FILLER_0_36_27
*1159 FILLER_0_36_271
*1160 FILLER_0_36_288
*1161 FILLER_0_36_29
*1162 FILLER_0_36_292
*1163 FILLER_0_36_3
*1164 FILLER_0_36_41
*1165 FILLER_0_36_53
*1166 FILLER_0_36_65
*1167 FILLER_0_36_77
*1168 FILLER_0_36_83
*1169 FILLER_0_36_85
*1170 FILLER_0_37_107
*1171 FILLER_0_37_113
*1172 FILLER_0_37_133
*1173 FILLER_0_37_141
*1174 FILLER_0_37_15
*1175 FILLER_0_37_169
*1176 FILLER_0_37_181
*1177 FILLER_0_37_231
*1178 FILLER_0_37_27
*1179 FILLER_0_37_279
*1180 FILLER_0_37_290
*1181 FILLER_0_37_3
*1182 FILLER_0_37_327
*1183 FILLER_0_37_35
*1184 FILLER_0_37_46
*1185 FILLER_0_37_52
*1186 FILLER_0_37_61
*1187 FILLER_0_37_73
*1188 FILLER_0_37_85
*1189 FILLER_0_37_93
*1190 FILLER_0_38_10
*1191 FILLER_0_38_106
*1192 FILLER_0_38_113
*1193 FILLER_0_38_125
*1194 FILLER_0_38_137
*1195 FILLER_0_38_14
*1196 FILLER_0_38_141
*1197 FILLER_0_38_153
*1198 FILLER_0_38_161
*1199 FILLER_0_38_18
*1200 FILLER_0_38_183
*1201 FILLER_0_38_195
*1202 FILLER_0_38_197
*1203 FILLER_0_38_205
*1204 FILLER_0_38_213
*1205 FILLER_0_38_219
*1206 FILLER_0_38_22
*1207 FILLER_0_38_250
*1208 FILLER_0_38_256
*1209 FILLER_0_38_278
*1210 FILLER_0_38_290
*1211 FILLER_0_38_294
*1212 FILLER_0_38_32
*1213 FILLER_0_38_330
*1214 FILLER_0_38_334
*1215 FILLER_0_38_44
*1216 FILLER_0_38_57
*1217 FILLER_0_38_6
*1218 FILLER_0_38_69
*1219 FILLER_0_38_81
*1220 FILLER_0_38_85
*1221 FILLER_0_38_94
*1222 FILLER_0_3_105
*1223 FILLER_0_3_111
*1224 FILLER_0_3_113
*1225 FILLER_0_3_125
*1226 FILLER_0_3_137
*1227 FILLER_0_3_149
*1228 FILLER_0_3_15
*1229 FILLER_0_3_161
*1230 FILLER_0_3_167
*1231 FILLER_0_3_169
*1232 FILLER_0_3_181
*1233 FILLER_0_3_193
*1234 FILLER_0_3_205
*1235 FILLER_0_3_217
*1236 FILLER_0_3_223
*1237 FILLER_0_3_225
*1238 FILLER_0_3_237
*1239 FILLER_0_3_249
*1240 FILLER_0_3_261
*1241 FILLER_0_3_27
*1242 FILLER_0_3_273
*1243 FILLER_0_3_279
*1244 FILLER_0_3_281
*1245 FILLER_0_3_293
*1246 FILLER_0_3_3
*1247 FILLER_0_3_305
*1248 FILLER_0_3_317
*1249 FILLER_0_3_329
*1250 FILLER_0_3_39
*1251 FILLER_0_3_51
*1252 FILLER_0_3_55
*1253 FILLER_0_3_57
*1254 FILLER_0_3_69
*1255 FILLER_0_3_81
*1256 FILLER_0_3_93
*1257 FILLER_0_4_109
*1258 FILLER_0_4_121
*1259 FILLER_0_4_133
*1260 FILLER_0_4_139
*1261 FILLER_0_4_141
*1262 FILLER_0_4_15
*1263 FILLER_0_4_153
*1264 FILLER_0_4_165
*1265 FILLER_0_4_177
*1266 FILLER_0_4_189
*1267 FILLER_0_4_195
*1268 FILLER_0_4_197
*1269 FILLER_0_4_209
*1270 FILLER_0_4_221
*1271 FILLER_0_4_233
*1272 FILLER_0_4_245
*1273 FILLER_0_4_251
*1274 FILLER_0_4_253
*1275 FILLER_0_4_265
*1276 FILLER_0_4_27
*1277 FILLER_0_4_277
*1278 FILLER_0_4_289
*1279 FILLER_0_4_29
*1280 FILLER_0_4_3
*1281 FILLER_0_4_301
*1282 FILLER_0_4_307
*1283 FILLER_0_4_309
*1284 FILLER_0_4_321
*1285 FILLER_0_4_333
*1286 FILLER_0_4_41
*1287 FILLER_0_4_53
*1288 FILLER_0_4_65
*1289 FILLER_0_4_77
*1290 FILLER_0_4_83
*1291 FILLER_0_4_85
*1292 FILLER_0_4_97
*1293 FILLER_0_5_105
*1294 FILLER_0_5_111
*1295 FILLER_0_5_113
*1296 FILLER_0_5_125
*1297 FILLER_0_5_137
*1298 FILLER_0_5_149
*1299 FILLER_0_5_15
*1300 FILLER_0_5_161
*1301 FILLER_0_5_167
*1302 FILLER_0_5_169
*1303 FILLER_0_5_181
*1304 FILLER_0_5_193
*1305 FILLER_0_5_205
*1306 FILLER_0_5_217
*1307 FILLER_0_5_223
*1308 FILLER_0_5_225
*1309 FILLER_0_5_237
*1310 FILLER_0_5_249
*1311 FILLER_0_5_261
*1312 FILLER_0_5_27
*1313 FILLER_0_5_273
*1314 FILLER_0_5_279
*1315 FILLER_0_5_281
*1316 FILLER_0_5_293
*1317 FILLER_0_5_3
*1318 FILLER_0_5_305
*1319 FILLER_0_5_317
*1320 FILLER_0_5_329
*1321 FILLER_0_5_39
*1322 FILLER_0_5_51
*1323 FILLER_0_5_55
*1324 FILLER_0_5_57
*1325 FILLER_0_5_69
*1326 FILLER_0_5_81
*1327 FILLER_0_5_93
*1328 FILLER_0_6_109
*1329 FILLER_0_6_121
*1330 FILLER_0_6_133
*1331 FILLER_0_6_139
*1332 FILLER_0_6_141
*1333 FILLER_0_6_15
*1334 FILLER_0_6_153
*1335 FILLER_0_6_165
*1336 FILLER_0_6_177
*1337 FILLER_0_6_189
*1338 FILLER_0_6_195
*1339 FILLER_0_6_197
*1340 FILLER_0_6_209
*1341 FILLER_0_6_221
*1342 FILLER_0_6_233
*1343 FILLER_0_6_245
*1344 FILLER_0_6_251
*1345 FILLER_0_6_253
*1346 FILLER_0_6_265
*1347 FILLER_0_6_27
*1348 FILLER_0_6_277
*1349 FILLER_0_6_289
*1350 FILLER_0_6_29
*1351 FILLER_0_6_3
*1352 FILLER_0_6_301
*1353 FILLER_0_6_307
*1354 FILLER_0_6_309
*1355 FILLER_0_6_321
*1356 FILLER_0_6_333
*1357 FILLER_0_6_41
*1358 FILLER_0_6_53
*1359 FILLER_0_6_65
*1360 FILLER_0_6_77
*1361 FILLER_0_6_83
*1362 FILLER_0_6_85
*1363 FILLER_0_6_97
*1364 FILLER_0_7_105
*1365 FILLER_0_7_111
*1366 FILLER_0_7_113
*1367 FILLER_0_7_125
*1368 FILLER_0_7_137
*1369 FILLER_0_7_149
*1370 FILLER_0_7_15
*1371 FILLER_0_7_161
*1372 FILLER_0_7_167
*1373 FILLER_0_7_169
*1374 FILLER_0_7_181
*1375 FILLER_0_7_193
*1376 FILLER_0_7_205
*1377 FILLER_0_7_217
*1378 FILLER_0_7_223
*1379 FILLER_0_7_225
*1380 FILLER_0_7_237
*1381 FILLER_0_7_249
*1382 FILLER_0_7_261
*1383 FILLER_0_7_27
*1384 FILLER_0_7_273
*1385 FILLER_0_7_279
*1386 FILLER_0_7_281
*1387 FILLER_0_7_293
*1388 FILLER_0_7_3
*1389 FILLER_0_7_305
*1390 FILLER_0_7_317
*1391 FILLER_0_7_329
*1392 FILLER_0_7_39
*1393 FILLER_0_7_51
*1394 FILLER_0_7_55
*1395 FILLER_0_7_57
*1396 FILLER_0_7_69
*1397 FILLER_0_7_81
*1398 FILLER_0_7_93
*1399 FILLER_0_8_109
*1400 FILLER_0_8_121
*1401 FILLER_0_8_133
*1402 FILLER_0_8_139
*1403 FILLER_0_8_141
*1404 FILLER_0_8_15
*1405 FILLER_0_8_153
*1406 FILLER_0_8_165
*1407 FILLER_0_8_177
*1408 FILLER_0_8_189
*1409 FILLER_0_8_195
*1410 FILLER_0_8_197
*1411 FILLER_0_8_209
*1412 FILLER_0_8_221
*1413 FILLER_0_8_233
*1414 FILLER_0_8_245
*1415 FILLER_0_8_251
*1416 FILLER_0_8_253
*1417 FILLER_0_8_265
*1418 FILLER_0_8_27
*1419 FILLER_0_8_277
*1420 FILLER_0_8_289
*1421 FILLER_0_8_29
*1422 FILLER_0_8_3
*1423 FILLER_0_8_301
*1424 FILLER_0_8_307
*1425 FILLER_0_8_309
*1426 FILLER_0_8_321
*1427 FILLER_0_8_333
*1428 FILLER_0_8_41
*1429 FILLER_0_8_53
*1430 FILLER_0_8_65
*1431 FILLER_0_8_77
*1432 FILLER_0_8_83
*1433 FILLER_0_8_85
*1434 FILLER_0_8_97
*1435 FILLER_0_9_105
*1436 FILLER_0_9_111
*1437 FILLER_0_9_113
*1438 FILLER_0_9_125
*1439 FILLER_0_9_137
*1440 FILLER_0_9_149
*1441 FILLER_0_9_15
*1442 FILLER_0_9_161
*1443 FILLER_0_9_167
*1444 FILLER_0_9_169
*1445 FILLER_0_9_181
*1446 FILLER_0_9_193
*1447 FILLER_0_9_205
*1448 FILLER_0_9_217
*1449 FILLER_0_9_223
*1450 FILLER_0_9_225
*1451 FILLER_0_9_237
*1452 FILLER_0_9_249
*1453 FILLER_0_9_261
*1454 FILLER_0_9_27
*1455 FILLER_0_9_273
*1456 FILLER_0_9_279
*1457 FILLER_0_9_281
*1458 FILLER_0_9_293
*1459 FILLER_0_9_3
*1460 FILLER_0_9_305
*1461 FILLER_0_9_317
*1462 FILLER_0_9_329
*1463 FILLER_0_9_39
*1464 FILLER_0_9_51
*1465 FILLER_0_9_55
*1466 FILLER_0_9_57
*1467 FILLER_0_9_69
*1468 FILLER_0_9_81
*1469 FILLER_0_9_93
*1470 PHY_EDGE_ROW_0_Left_39
*1471 PHY_EDGE_ROW_0_Right_0
*1472 PHY_EDGE_ROW_10_Left_49
*1473 PHY_EDGE_ROW_10_Right_10
*1474 PHY_EDGE_ROW_11_Left_50
*1475 PHY_EDGE_ROW_11_Right_11
*1476 PHY_EDGE_ROW_12_Left_51
*1477 PHY_EDGE_ROW_12_Right_12
*1478 PHY_EDGE_ROW_13_Left_52
*1479 PHY_EDGE_ROW_13_Right_13
*1480 PHY_EDGE_ROW_14_Left_53
*1481 PHY_EDGE_ROW_14_Right_14
*1482 PHY_EDGE_ROW_15_Left_54
*1483 PHY_EDGE_ROW_15_Right_15
*1484 PHY_EDGE_ROW_16_Left_55
*1485 PHY_EDGE_ROW_16_Right_16