*SPEF "ieee 1481-1999"
*DESIGN "tt_um_pyamnihc_dummy_counter"
*DATE "11:29:04 Saturday June 01, 2024"
*VENDOR "The OpenROAD Project"
*PROGRAM "OpenROAD"
*VERSION "da0053d7b0014ab9c87ea148875ff6c2a0f9b658"
*DESIGN_FLOW "NAME_SCOPE LOCAL" "PIN_CAP NONE"
*DIVIDER /
*DELIMITER :
*BUS_DELIMITER []
*T_UNIT 1 NS
*C_UNIT 1 PF
*R_UNIT 1 OHM
*L_UNIT 1 HENRY

*NAME_MAP
*3 clk
*4 ena
*5 rst_n
*6 ui_in[0]
*7 ui_in[1]
*8 ui_in[2]
*9 ui_in[3]
*10 ui_in[4]
*11 ui_in[5]
*12 ui_in[6]
*13 ui_in[7]
*14 uio_in[0]
*15 uio_in[1]
*16 uio_in[2]
*17 uio_in[3]
*18 uio_in[4]
*19 uio_in[5]
*20 uio_in[6]
*21 uio_in[7]
*22 net13
*23 net14
*24 net15
*25 net16
*26 net17
*27 net18
*28 net19
*29 net20
*30 uio_out[0]
*31 uio_out[1]
*32 uio_out[2]
*33 uio_out[3]
*34 uio_out[4]
*35 uio_out[5]
*36 uio_out[6]
*37 uio_out[7]
*38 uo_out[0]
*39 uo_out[1]
*40 uo_out[2]
*41 uo_out[3]
*42 uo_out[4]
*43 uo_out[5]
*44 uo_out[6]
*45 uo_out[7]
*46 _000_
*47 _001_
*48 _002_
*49 _003_
*50 _004_
*51 _005_
*52 _006_
*53 _007_
*54 _008_
*55 _009_
*56 _010_
*57 _011_
*58 _012_
*59 _013_
*60 _014_
*61 _015_
*62 _016_
*63 _017_
*64 _018_
*65 _019_
*66 _020_
*67 _021_
*68 _022_
*69 _023_
*70 _024_
*71 _025_
*72 _026_
*73 _027_
*74 _028_
*75 _029_
*76 _030_
*77 _031_
*78 _032_
*79 _033_
*80 _034_
*81 _035_
*82 _036_
*83 _037_
*84 _038_
*85 _039_
*86 _040_
*87 _041_
*88 _042_
*89 _043_
*90 _044_
*91 _045_
*92 _046_
*93 _047_
*94 _048_
*95 _049_
*96 _050_
*97 _051_
*98 _052_
*99 _053_
*100 _054_
*101 _055_
*102 _056_
*103 _057_
*104 _058_
*105 _059_
*106 _060_
*107 _061_
*108 _062_
*109 _063_
*110 _064_
*111 _065_
*112 _066_
*113 _067_
*114 _068_
*115 _069_
*116 _070_
*117 _071_
*118 _072_
*119 _073_
*120 _074_
*121 _075_
*122 _076_
*123 _077_
*124 _078_
*125 _079_
*126 _080_
*127 _081_
*128 _082_
*129 _083_
*130 _084_
*131 _085_
*132 _086_
*133 _087_
*134 _088_
*135 _089_
*136 _090_
*137 _091_
*138 _092_
*139 _093_
*140 _094_
*141 _095_
*142 _096_
*143 _097_
*144 _098_
*145 _099_
*146 _100_
*147 _101_
*148 _102_
*149 _103_
*150 _104_
*151 _105_
*152 _106_
*153 _107_
*154 _108_
*155 _109_
*156 _110_
*157 _111_
*158 _112_
*159 _113_
*160 _114_
*161 _115_
*162 _116_
*163 _117_
*164 _118_
*165 _119_
*166 _120_
*167 _121_
*168 _122_
*169 _123_
*170 _124_
*171 _125_
*172 _126_
*173 _127_
*174 _128_
*175 _129_
*176 _130_
*177 _131_
*178 _132_
*179 _133_
*180 _134_
*181 _135_
*182 _136_
*183 _137_
*184 _138_
*185 _139_
*186 _140_
*187 _141_
*188 _142_
*189 _143_
*190 _144_
*191 _145_
*192 _146_
*193 _147_
*194 _148_
*195 _149_
*196 _150_
*197 _151_
*198 _152_
*199 _153_
*200 _154_
*201 _155_
*202 _156_
*203 _157_
*204 _158_
*205 _159_
*206 _160_
*207 _161_
*208 _162_
*209 _163_
*210 _164_
*211 _165_
*212 _166_
*213 _167_
*214 _168_
*215 _169_
*216 _170_
*217 _171_
*218 _172_
*219 _173_
*220 _174_
*221 _175_
*222 _176_
*223 _177_
*224 _178_
*225 _179_
*226 _180_
*227 _181_
*228 _182_
*229 _183_
*230 _184_
*231 _185_
*232 _186_
*233 _187_
*234 _188_
*235 _189_
*236 _190_
*237 _191_
*238 _192_
*239 _193_
*240 _194_
*241 _195_
*242 _196_
*243 _197_
*244 _198_
*245 _199_
*246 _200_
*247 _201_
*248 _202_
*249 _203_
*250 _204_
*251 _205_
*252 _206_
*253 _207_
*254 _208_
*255 _209_
*256 _210_
*257 _211_
*258 _212_
*259 _213_
*260 _214_
*261 _215_
*262 _216_
*263 _217_
*264 _218_
*265 _219_
*266 _220_
*267 _221_
*268 _222_
*269 _223_
*270 _224_
*271 _225_
*272 _226_
*273 _227_
*274 _228_
*275 _229_
*276 _230_
*277 _231_
*278 _232_
*279 _233_
*280 _234_
*281 _235_
*282 _236_
*283 _237_
*284 _238_
*285 _239_
*286 _240_
*287 _241_
*288 _242_
*289 _243_
*290 _244_
*291 _245_
*292 _246_
*293 _247_
*294 _248_
*295 _249_
*296 _250_
*297 _251_
*298 _252_
*299 _253_
*300 _254_
*301 _255_
*302 _256_
*303 _257_
*304 _258_
*305 _259_
*306 _260_
*307 _261_
*308 _262_
*309 _263_
*310 _264_
*311 _265_
*312 _266_
*313 _267_
*314 _268_
*315 _269_
*316 _270_
*317 _271_
*318 _272_
*319 _273_
*320 _274_
*321 _275_
*322 _276_
*323 _277_
*324 _278_
*325 _279_
*326 _280_
*327 _281_
*328 _282_
*329 _283_
*330 _284_
*331 _285_
*332 _286_
*333 _287_
*334 _288_
*335 _289_
*336 _290_
*337 _291_
*338 _292_
*339 _293_
*340 _294_
*341 _295_
*342 _296_
*343 _297_
*344 _298_
*345 _299_
*346 _300_
*347 _301_
*348 _302_
*349 _303_
*350 _304_
*351 _305_
*352 _306_
*353 _307_
*354 _308_
*355 _309_
*356 _310_
*357 _311_
*358 _312_
*359 _313_
*360 _314_
*361 _315_
*362 _316_
*363 _317_
*364 _318_
*365 _319_
*366 _320_
*367 _321_
*368 _322_
*369 _323_
*370 _324_
*371 _325_
*372 _326_
*373 _327_
*374 _328_
*375 _329_
*376 _330_
*377 _331_
*378 _332_
*379 _333_
*380 _334_
*381 _335_
*382 _336_
*383 _337_
*384 _338_
*385 _339_
*386 _340_
*387 _341_
*388 _342_
*389 _343_
*390 _344_
*391 _345_
*392 _346_
*393 _347_
*394 _348_
*395 _349_
*396 _350_
*397 _351_
*398 _352_
*399 _353_
*400 _354_
*401 _355_
*402 _356_
*403 _357_
*404 _358_
*405 _359_
*406 _360_
*407 _361_
*408 _362_
*409 _363_
*410 _364_
*411 _365_
*412 _366_
*413 _367_
*414 _368_
*415 _369_
*416 _370_
*417 _371_
*418 _372_
*419 _373_
*420 _374_
*421 _375_
*422 _376_
*423 _377_
*424 _378_
*425 _379_
*426 _380_
*427 _381_
*428 _382_
*429 _383_
*430 _384_
*431 _385_
*432 _386_
*433 _387_
*434 _388_
*435 _389_
*436 _390_
*437 _391_
*438 _392_
*439 _393_
*440 _394_
*441 _395_
*442 _396_
*443 _397_
*444 _398_
*445 _399_
*446 _400_
*447 _401_
*448 _402_
*449 _403_
*450 _404_
*451 _405_
*452 _406_
*453 _407_
*454 _408_
*455 _409_
*456 _410_
*457 _411_
*458 _412_
*459 _413_
*460 _414_
*461 _415_
*462 _416_
*463 _417_
*464 _418_
*465 _419_
*466 _420_
*467 _421_
*468 clknet_0_clk
*469 clknet_1_0__leaf_clk
*470 clknet_1_1__leaf_clk
*471 count_en_db_r
*472 count_en_p\[0\]
*473 count_en_p\[1\]
*474 count_en_p\[2\]
*475 count_en_p\[3\]
*476 count_en_r
*477 counter_db_r\[0\]
*478 counter_db_r\[1\]
*479 counter_db_r\[2\]
*480 counter_db_r\[3\]
*481 counter_r\[0\]
*482 counter_r\[10\]
*483 counter_r\[11\]
*484 counter_r\[12\]
*485 counter_r\[13\]
*486 counter_r\[14\]
*487 counter_r\[15\]
*488 counter_r\[1\]
*489 counter_r\[2\]
*490 counter_r\[3\]
*491 counter_r\[4\]
*492 counter_r\[5\]
*493 counter_r\[6\]
*494 counter_r\[7\]
*495 counter_r\[8\]
*496 counter_r\[9\]
*497 net1
*498 net10
*499 net11
*500 net12
*501 net2
*502 net21
*503 net22
*504 net23
*505 net24
*506 net25
*507 net26
*508 net27
*509 net28
*510 net29
*511 net3
*512 net30
*513 net31
*514 net32
*515 net33
*516 net34
*517 net35
*518 net36
*519 net4
*520 net5
*521 net6
*522 net7
*523 net8
*524 net9
*525 FILLER_0_0_109
*526 FILLER_0_0_113
*527 FILLER_0_0_125
*528 FILLER_0_0_137
*529 FILLER_0_0_141
*530 FILLER_0_0_15
*531 FILLER_0_0_153
*532 FILLER_0_0_165
*533 FILLER_0_0_169
*534 FILLER_0_0_181
*535 FILLER_0_0_193
*536 FILLER_0_0_197
*537 FILLER_0_0_209
*538 FILLER_0_0_221
*539 FILLER_0_0_225
*540 FILLER_0_0_237
*541 FILLER_0_0_249
*542 FILLER_0_0_253
*543 FILLER_0_0_265
*544 FILLER_0_0_27
*545 FILLER_0_0_277
*546 FILLER_0_0_281
*547 FILLER_0_0_29
*548 FILLER_0_0_293
*549 FILLER_0_0_3
*550 FILLER_0_0_305
*551 FILLER_0_0_309
*552 FILLER_0_0_321
*553 FILLER_0_0_333
*554 FILLER_0_0_41
*555 FILLER_0_0_53
*556 FILLER_0_0_57
*557 FILLER_0_0_69
*558 FILLER_0_0_81
*559 FILLER_0_0_85
*560 FILLER_0_0_97
*561 FILLER_0_10_109
*562 FILLER_0_10_121
*563 FILLER_0_10_133
*564 FILLER_0_10_139
*565 FILLER_0_10_141
*566 FILLER_0_10_15
*567 FILLER_0_10_153
*568 FILLER_0_10_165
*569 FILLER_0_10_177
*570 FILLER_0_10_189
*571 FILLER_0_10_195
*572 FILLER_0_10_197
*573 FILLER_0_10_209
*574 FILLER_0_10_221
*575 FILLER_0_10_233
*576 FILLER_0_10_245
*577 FILLER_0_10_251
*578 FILLER_0_10_253
*579 FILLER_0_10_265
*580 FILLER_0_10_27
*581 FILLER_0_10_277
*582 FILLER_0_10_289
*583 FILLER_0_10_29
*584 FILLER_0_10_3
*585 FILLER_0_10_301
*586 FILLER_0_10_307
*587 FILLER_0_10_309
*588 FILLER_0_10_321
*589 FILLER_0_10_333
*590 FILLER_0_10_41
*591 FILLER_0_10_53
*592 FILLER_0_10_65
*593 FILLER_0_10_77
*594 FILLER_0_10_83
*595 FILLER_0_10_85
*596 FILLER_0_10_97
*597 FILLER_0_11_105
*598 FILLER_0_11_111
*599 FILLER_0_11_113
*600 FILLER_0_11_125
*601 FILLER_0_11_137
*602 FILLER_0_11_149
*603 FILLER_0_11_15
*604 FILLER_0_11_161
*605 FILLER_0_11_167
*606 FILLER_0_11_169
*607 FILLER_0_11_181
*608 FILLER_0_11_193
*609 FILLER_0_11_205
*610 FILLER_0_11_217
*611 FILLER_0_11_223
*612 FILLER_0_11_225
*613 FILLER_0_11_237
*614 FILLER_0_11_249
*615 FILLER_0_11_261
*616 FILLER_0_11_27
*617 FILLER_0_11_273
*618 FILLER_0_11_279
*619 FILLER_0_11_281
*620 FILLER_0_11_293
*621 FILLER_0_11_3
*622 FILLER_0_11_305
*623 FILLER_0_11_317
*624 FILLER_0_11_329
*625 FILLER_0_11_39
*626 FILLER_0_11_51
*627 FILLER_0_11_55
*628 FILLER_0_11_57
*629 FILLER_0_11_69
*630 FILLER_0_11_81
*631 FILLER_0_11_93
*632 FILLER_0_12_109
*633 FILLER_0_12_121
*634 FILLER_0_12_133
*635 FILLER_0_12_139
*636 FILLER_0_12_141
*637 FILLER_0_12_15
*638 FILLER_0_12_153
*639 FILLER_0_12_165
*640 FILLER_0_12_177
*641 FILLER_0_12_189
*642 FILLER_0_12_195
*643 FILLER_0_12_197
*644 FILLER_0_12_209
*645 FILLER_0_12_221
*646 FILLER_0_12_233
*647 FILLER_0_12_245
*648 FILLER_0_12_251
*649 FILLER_0_12_253
*650 FILLER_0_12_265
*651 FILLER_0_12_27
*652 FILLER_0_12_277
*653 FILLER_0_12_289
*654 FILLER_0_12_29
*655 FILLER_0_12_3
*656 FILLER_0_12_301
*657 FILLER_0_12_307
*658 FILLER_0_12_309
*659 FILLER_0_12_321
*660 FILLER_0_12_333
*661 FILLER_0_12_41
*662 FILLER_0_12_53
*663 FILLER_0_12_65
*664 FILLER_0_12_77
*665 FILLER_0_12_83
*666 FILLER_0_12_85
*667 FILLER_0_12_97
*668 FILLER_0_13_105
*669 FILLER_0_13_111
*670 FILLER_0_13_113
*671 FILLER_0_13_125
*672 FILLER_0_13_137
*673 FILLER_0_13_149
*674 FILLER_0_13_15
*675 FILLER_0_13_161
*676 FILLER_0_13_167
*677 FILLER_0_13_169
*678 FILLER_0_13_181
*679 FILLER_0_13_193
*680 FILLER_0_13_205
*681 FILLER_0_13_217
*682 FILLER_0_13_223
*683 FILLER_0_13_225
*684 FILLER_0_13_237
*685 FILLER_0_13_249
*686 FILLER_0_13_261
*687 FILLER_0_13_27
*688 FILLER_0_13_273
*689 FILLER_0_13_279
*690 FILLER_0_13_281
*691 FILLER_0_13_293
*692 FILLER_0_13_3
*693 FILLER_0_13_305
*694 FILLER_0_13_317
*695 FILLER_0_13_329
*696 FILLER_0_13_39
*697 FILLER_0_13_51
*698 FILLER_0_13_55
*699 FILLER_0_13_57
*700 FILLER_0_13_69
*701 FILLER_0_13_81
*702 FILLER_0_13_93
*703 FILLER_0_14_109
*704 FILLER_0_14_121
*705 FILLER_0_14_133
*706 FILLER_0_14_139
*707 FILLER_0_14_141
*708 FILLER_0_14_15
*709 FILLER_0_14_153
*710 FILLER_0_14_165
*711 FILLER_0_14_177
*712 FILLER_0_14_189
*713 FILLER_0_14_195
*714 FILLER_0_14_197
*715 FILLER_0_14_209
*716 FILLER_0_14_221
*717 FILLER_0_14_233
*718 FILLER_0_14_245
*719 FILLER_0_14_251
*720 FILLER_0_14_253
*721 FILLER_0_14_265
*722 FILLER_0_14_27
*723 FILLER_0_14_277
*724 FILLER_0_14_289
*725 FILLER_0_14_29
*726 FILLER_0_14_3
*727 FILLER_0_14_301
*728 FILLER_0_14_307
*729 FILLER_0_14_309
*730 FILLER_0_14_321
*731 FILLER_0_14_333
*732 FILLER_0_14_41
*733 FILLER_0_14_53
*734 FILLER_0_14_65
*735 FILLER_0_14_77
*736 FILLER_0_14_83
*737 FILLER_0_14_85
*738 FILLER_0_14_97
*739 FILLER_0_15_105
*740 FILLER_0_15_111
*741 FILLER_0_15_113
*742 FILLER_0_15_125
*743 FILLER_0_15_137
*744 FILLER_0_15_149
*745 FILLER_0_15_15
*746 FILLER_0_15_161
*747 FILLER_0_15_167
*748 FILLER_0_15_169
*749 FILLER_0_15_181
*750 FILLER_0_15_193
*751 FILLER_0_15_205
*752 FILLER_0_15_217
*753 FILLER_0_15_223
*754 FILLER_0_15_225
*755 FILLER_0_15_237
*756 FILLER_0_15_249
*757 FILLER_0_15_261
*758 FILLER_0_15_27
*759 FILLER_0_15_273
*760 FILLER_0_15_279
*761 FILLER_0_15_281
*762 FILLER_0_15_293
*763 FILLER_0_15_3
*764 FILLER_0_15_305
*765 FILLER_0_15_317
*766 FILLER_0_15_329
*767 FILLER_0_15_39
*768 FILLER_0_15_51
*769 FILLER_0_15_55
*770 FILLER_0_15_57
*771 FILLER_0_15_69
*772 FILLER_0_15_81
*773 FILLER_0_15_93
*774 FILLER_0_16_109
*775 FILLER_0_16_121
*776 FILLER_0_16_133
*777 FILLER_0_16_139
*778 FILLER_0_16_141
*779 FILLER_0_16_15
*780 FILLER_0_16_153
*781 FILLER_0_16_165
*782 FILLER_0_16_177
*783 FILLER_0_16_189
*784 FILLER_0_16_195
*785 FILLER_0_16_197
*786 FILLER_0_16_209
*787 FILLER_0_16_221
*788 FILLER_0_16_233
*789 FILLER_0_16_245
*790 FILLER_0_16_251
*791 FILLER_0_16_253
*792 FILLER_0_16_265
*793 FILLER_0_16_27
*794 FILLER_0_16_277
*795 FILLER_0_16_289
*796 FILLER_0_16_29
*797 FILLER_0_16_3
*798 FILLER_0_16_301
*799 FILLER_0_16_307
*800 FILLER_0_16_309
*801 FILLER_0_16_321
*802 FILLER_0_16_333
*803 FILLER_0_16_41
*804 FILLER_0_16_53
*805 FILLER_0_16_65
*806 FILLER_0_16_77
*807 FILLER_0_16_83
*808 FILLER_0_16_85
*809 FILLER_0_16_97
*810 FILLER_0_17_105
*811 FILLER_0_17_111
*812 FILLER_0_17_113
*813 FILLER_0_17_125
*814 FILLER_0_17_137
*815 FILLER_0_17_149
*816 FILLER_0_17_15
*817 FILLER_0_17_161
*818 FILLER_0_17_167
*819 FILLER_0_17_169
*820 FILLER_0_17_181
*821 FILLER_0_17_193
*822 FILLER_0_17_205
*823 FILLER_0_17_217
*824 FILLER_0_17_223
*825 FILLER_0_17_225
*826 FILLER_0_17_237
*827 FILLER_0_17_249
*828 FILLER_0_17_261
*829 FILLER_0_17_27
*830 FILLER_0_17_273
*831 FILLER_0_17_279
*832 FILLER_0_17_281
*833 FILLER_0_17_293
*834 FILLER_0_17_3
*835 FILLER_0_17_305
*836 FILLER_0_17_317
*837 FILLER_0_17_329
*838 FILLER_0_17_39
*839 FILLER_0_17_51
*840 FILLER_0_17_55
*841 FILLER_0_17_57
*842 FILLER_0_17_69
*843 FILLER_0_17_81
*844 FILLER_0_17_93
*845 FILLER_0_18_105
*846 FILLER_0_18_117
*847 FILLER_0_18_129
*848 FILLER_0_18_137
*849 FILLER_0_18_141
*850 FILLER_0_18_15
*851 FILLER_0_18_153
*852 FILLER_0_18_165
*853 FILLER_0_18_177
*854 FILLER_0_18_189
*855 FILLER_0_18_195
*856 FILLER_0_18_197
*857 FILLER_0_18_209
*858 FILLER_0_18_221
*859 FILLER_0_18_233
*860 FILLER_0_18_245
*861 FILLER_0_18_251
*862 FILLER_0_18_253
*863 FILLER_0_18_265
*864 FILLER_0_18_27
*865 FILLER_0_18_277
*866 FILLER_0_18_289
*867 FILLER_0_18_29
*868 FILLER_0_18_3
*869 FILLER_0_18_301
*870 FILLER_0_18_307
*871 FILLER_0_18_309
*872 FILLER_0_18_321
*873 FILLER_0_18_333
*874 FILLER_0_18_41
*875 FILLER_0_18_53
*876 FILLER_0_18_65
*877 FILLER_0_18_77
*878 FILLER_0_18_83
*879 FILLER_0_18_85
*880 FILLER_0_18_97
*881 FILLER_0_19_109
*882 FILLER_0_19_113
*883 FILLER_0_19_125
*884 FILLER_0_19_129
*885 FILLER_0_19_15
*886 FILLER_0_19_156
*887 FILLER_0_19_169
*888 FILLER_0_19_181
*889 FILLER_0_19_185
*890 FILLER_0_19_202
*891 FILLER_0_19_214
*892 FILLER_0_19_222
*893 FILLER_0_19_225
*894 FILLER_0_19_237
*895 FILLER_0_19_249
*896 FILLER_0_19_261
*897 FILLER_0_19_27
*898 FILLER_0_19_273
*899 FILLER_0_19_279
*900 FILLER_0_19_281
*901 FILLER_0_19_293
*902 FILLER_0_19_3
*903 FILLER_0_19_305
*904 FILLER_0_19_317
*905 FILLER_0_19_329
*906 FILLER_0_19_39
*907 FILLER_0_19_51
*908 FILLER_0_19_55
*909 FILLER_0_19_57
*910 FILLER_0_19_69
*911 FILLER_0_19_81
*912 FILLER_0_19_93
*913 FILLER_0_1_105
*914 FILLER_0_1_111
*915 FILLER_0_1_113
*916 FILLER_0_1_125
*917 FILLER_0_1_137
*918 FILLER_0_1_149
*919 FILLER_0_1_15
*920 FILLER_0_1_161
*921 FILLER_0_1_167
*922 FILLER_0_1_169
*923 FILLER_0_1_181
*924 FILLER_0_1_193
*925 FILLER_0_1_205
*926 FILLER_0_1_217
*927 FILLER_0_1_223
*928 FILLER_0_1_225
*929 FILLER_0_1_237
*930 FILLER_0_1_249
*931 FILLER_0_1_261
*932 FILLER_0_1_27
*933 FILLER_0_1_273
*934 FILLER_0_1_279
*935 FILLER_0_1_281
*936 FILLER_0_1_293
*937 FILLER_0_1_3
*938 FILLER_0_1_305
*939 FILLER_0_1_317
*940 FILLER_0_1_329
*941 FILLER_0_1_39
*942 FILLER_0_1_51
*943 FILLER_0_1_55
*944 FILLER_0_1_57
*945 FILLER_0_1_69
*946 FILLER_0_1_81
*947 FILLER_0_1_93
*948 FILLER_0_20_116
*949 FILLER_0_20_124
*950 FILLER_0_20_141
*951 FILLER_0_20_15
*952 FILLER_0_20_156
*953 FILLER_0_20_168
*954 FILLER_0_20_179
*955 FILLER_0_20_195
*956 FILLER_0_20_203
*957 FILLER_0_20_215
*958 FILLER_0_20_227
*959 FILLER_0_20_239
*960 FILLER_0_20_251
*961 FILLER_0_20_253
*962 FILLER_0_20_265
*963 FILLER_0_20_27
*964 FILLER_0_20_277
*965 FILLER_0_20_289
*966 FILLER_0_20_29
*967 FILLER_0_20_3
*968 FILLER_0_20_301
*969 FILLER_0_20_307
*970 FILLER_0_20_309
*971 FILLER_0_20_321
*972 FILLER_0_20_333
*973 FILLER_0_20_41
*974 FILLER_0_20_59
*975 FILLER_0_20_71
*976 FILLER_0_20_83
*977 FILLER_0_20_85
*978 FILLER_0_20_89
*979 FILLER_0_21_105
*980 FILLER_0_21_117
*981 FILLER_0_21_129
*982 FILLER_0_21_148
*983 FILLER_0_21_15
*984 FILLER_0_21_157
*985 FILLER_0_21_165
*986 FILLER_0_21_169
*987 FILLER_0_21_203
*988 FILLER_0_21_215
*989 FILLER_0_21_225
*990 FILLER_0_21_246
*991 FILLER_0_21_258
*992 FILLER_0_21_27
*993 FILLER_0_21_270
*994 FILLER_0_21_278
*995 FILLER_0_21_281
*996 FILLER_0_21_293
*997 FILLER_0_21_3
*998 FILLER_0_21_305
*999 FILLER_0_21_317
*1000 FILLER_0_21_329
*1001 FILLER_0_21_48
*1002 FILLER_0_21_65
*1003 FILLER_0_21_73
*1004 FILLER_0_21_90
*1005 FILLER_0_22_100
*1006 FILLER_0_22_112
*1007 FILLER_0_22_124
*1008 FILLER_0_22_139
*1009 FILLER_0_22_141
*1010 FILLER_0_22_15
*1011 FILLER_0_22_153
*1012 FILLER_0_22_161
*1013 FILLER_0_22_169
*1014 FILLER_0_22_173
*1015 FILLER_0_22_184
*1016 FILLER_0_22_190
*1017 FILLER_0_22_197
*1018 FILLER_0_22_205
*1019 FILLER_0_22_214
*1020 FILLER_0_22_218
*1021 FILLER_0_22_229
*1022 FILLER_0_22_236
*1023 FILLER_0_22_261
*1024 FILLER_0_22_273
*1025 FILLER_0_22_285
*1026 FILLER_0_22_297
*1027 FILLER_0_22_3
*1028 FILLER_0_22_305
*1029 FILLER_0_22_309
*1030 FILLER_0_22_321
*1031 FILLER_0_22_333
*1032 FILLER_0_22_37
*1033 FILLER_0_22_41
*1034 FILLER_0_22_58
*1035 FILLER_0_22_70
*1036 FILLER_0_22_82
*1037 FILLER_0_22_85
*1038 FILLER_0_22_96
*1039 FILLER_0_23_108
*1040 FILLER_0_23_113
*1041 FILLER_0_23_119
*1042 FILLER_0_23_147
*1043 FILLER_0_23_15
*1044 FILLER_0_23_156
*1045 FILLER_0_23_174
*1046 FILLER_0_23_200
*1047 FILLER_0_23_207
*1048 FILLER_0_23_219
*1049 FILLER_0_23_223
*1050 FILLER_0_23_23
*1051 FILLER_0_23_232
*1052 FILLER_0_23_240
*1053 FILLER_0_23_261
*1054 FILLER_0_23_273
*1055 FILLER_0_23_279
*1056 FILLER_0_23_281
*1057 FILLER_0_23_293
*1058 FILLER_0_23_3
*1059 FILLER_0_23_305
*1060 FILLER_0_23_317
*1061 FILLER_0_23_329
*1062 FILLER_0_23_35
*1063 FILLER_0_23_55
*1064 FILLER_0_23_57
*1065 FILLER_0_23_68
*1066 FILLER_0_23_80
*1067 FILLER_0_23_84
*1068 FILLER_0_23_96
*1069 FILLER_0_24_107
*1070 FILLER_0_24_138
*1071 FILLER_0_24_145
*1072 FILLER_0_24_154
*1073 FILLER_0_24_162
*1074 FILLER_0_24_192
*1075 FILLER_0_24_202
*1076 FILLER_0_24_21
*1077 FILLER_0_24_210
*1078 FILLER_0_24_225
*1079 FILLER_0_24_237
*1080 FILLER_0_24_249
*1081 FILLER_0_24_257
*1082 FILLER_0_24_27
*1083 FILLER_0_24_274
*1084 FILLER_0_24_283
*1085 FILLER_0_24_29
*1086 FILLER_0_24_295
*1087 FILLER_0_24_3
*1088 FILLER_0_24_307
*1089 FILLER_0_24_309
*1090 FILLER_0_24_321
*1091 FILLER_0_24_333
*1092 FILLER_0_24_46
*1093 FILLER_0_24_54
*1094 FILLER_0_24_62
*1095 FILLER_0_24_74
*1096 FILLER_0_24_85
*1097 FILLER_0_24_99
*1098 FILLER_0_25_104
*1099 FILLER_0_25_113
*1100 FILLER_0_25_122
*1101 FILLER_0_25_141
*1102 FILLER_0_25_15
*1103 FILLER_0_25_152
*1104 FILLER_0_25_164
*1105 FILLER_0_25_179
*1106 FILLER_0_25_19
*1107 FILLER_0_25_191
*1108 FILLER_0_25_203
*1109 FILLER_0_25_223
*1110 FILLER_0_25_228
*1111 FILLER_0_25_236
*1112 FILLER_0_25_271
*1113 FILLER_0_25_293
*1114 FILLER_0_25_3
*1115 FILLER_0_25_30
*1116 FILLER_0_25_305
*1117 FILLER_0_25_317
*1118 FILLER_0_25_325
*1119 FILLER_0_25_52
*1120 FILLER_0_25_57
*1121 FILLER_0_25_64
*1122 FILLER_0_25_78
*1123 FILLER_0_25_82
*1124 FILLER_0_25_93
*1125 FILLER_0_26_100
*1126 FILLER_0_26_112
*1127 FILLER_0_26_120
*1128 FILLER_0_26_132
*1129 FILLER_0_26_146
*1130 FILLER_0_26_15
*1131 FILLER_0_26_158
*1132 FILLER_0_26_186
*1133 FILLER_0_26_192
*1134 FILLER_0_26_197
*1135 FILLER_0_26_208
*1136 FILLER_0_26_222
*1137 FILLER_0_26_234
*1138 FILLER_0_26_238
*1139 FILLER_0_26_245
*1140 FILLER_0_26_251
*1141 FILLER_0_26_253
*1142 FILLER_0_26_266
*1143 FILLER_0_26_27
*1144 FILLER_0_26_272
*1145 FILLER_0_26_283
*1146 FILLER_0_26_29
*1147 FILLER_0_26_295
*1148 FILLER_0_26_3
*1149 FILLER_0_26_307
*1150 FILLER_0_26_333
*1151 FILLER_0_26_39
*1152 FILLER_0_26_48
*1153 FILLER_0_26_60
*1154 FILLER_0_26_64
*1155 FILLER_0_26_68
*1156 FILLER_0_26_91
*1157 FILLER_0_27_102
*1158 FILLER_0_27_110
*1159 FILLER_0_27_113
*1160 FILLER_0_27_123
*1161 FILLER_0_27_145
*1162 FILLER_0_27_15
*1163 FILLER_0_27_175
*1164 FILLER_0_27_189
*1165 FILLER_0_27_200
*1166 FILLER_0_27_212
*1167 FILLER_0_27_233
*1168 FILLER_0_27_237
*1169 FILLER_0_27_24
*1170 FILLER_0_27_246
*1171 FILLER_0_27_265
*1172 FILLER_0_27_277
*1173 FILLER_0_27_281
*1174 FILLER_0_27_293
*1175 FILLER_0_27_297
*1176 FILLER_0_27_3
*1177 FILLER_0_27_34
*1178 FILLER_0_27_57
*1179 FILLER_0_27_65
*1180 FILLER_0_27_77
*1181 FILLER_0_27_85
*1182 FILLER_0_27_90
*1183 FILLER_0_28_103
*1184 FILLER_0_28_111
*1185 FILLER_0_28_118
*1186 FILLER_0_28_129
*1187 FILLER_0_28_135
*1188 FILLER_0_28_139
*1189 FILLER_0_28_146
*1190 FILLER_0_28_15
*1191 FILLER_0_28_158
*1192 FILLER_0_28_170
*1193 FILLER_0_28_174
*1194 FILLER_0_28_178
*1195 FILLER_0_28_206
*1196 FILLER_0_28_214
*1197 FILLER_0_28_226
*1198 FILLER_0_28_238
*1199 FILLER_0_28_242
*1200 FILLER_0_28_268
*1201 FILLER_0_28_280
*1202 FILLER_0_28_292
*1203 FILLER_0_28_3
*1204 FILLER_0_28_300
*1205 FILLER_0_28_32
*1206 FILLER_0_28_329
*1207 FILLER_0_28_42
*1208 FILLER_0_28_70
*1209 FILLER_0_28_76
*1210 FILLER_0_28_82
*1211 FILLER_0_29_103
*1212 FILLER_0_29_111
*1213 FILLER_0_29_113
*1214 FILLER_0_29_129
*1215 FILLER_0_29_141
*1216 FILLER_0_29_15
*1217 FILLER_0_29_150
*1218 FILLER_0_29_162
*1219 FILLER_0_29_169
*1220 FILLER_0_29_181
*1221 FILLER_0_29_195
*1222 FILLER_0_29_201
*1223 FILLER_0_29_214
*1224 FILLER_0_29_222
*1225 FILLER_0_29_225
*1226 FILLER_0_29_240
*1227 FILLER_0_29_248
*1228 FILLER_0_29_260
*1229 FILLER_0_29_269
*1230 FILLER_0_29_278
*1231 FILLER_0_29_294
*1232 FILLER_0_29_3
*1233 FILLER_0_29_306
*1234 FILLER_0_29_328
*1235 FILLER_0_29_334
*1236 FILLER_0_29_39
*1237 FILLER_0_29_51
*1238 FILLER_0_29_55
*1239 FILLER_0_29_60
*1240 FILLER_0_29_72
*1241 FILLER_0_2_109
*1242 FILLER_0_2_121
*1243 FILLER_0_2_133
*1244 FILLER_0_2_139
*1245 FILLER_0_2_141
*1246 FILLER_0_2_15
*1247 FILLER_0_2_153
*1248 FILLER_0_2_165
*1249 FILLER_0_2_177
*1250 FILLER_0_2_189
*1251 FILLER_0_2_195
*1252 FILLER_0_2_197
*1253 FILLER_0_2_209
*1254 FILLER_0_2_221
*1255 FILLER_0_2_233
*1256 FILLER_0_2_245
*1257 FILLER_0_2_251
*1258 FILLER_0_2_253
*1259 FILLER_0_2_265
*1260 FILLER_0_2_27
*1261 FILLER_0_2_277
*1262 FILLER_0_2_289
*1263 FILLER_0_2_29
*1264 FILLER_0_2_3
*1265 FILLER_0_2_301
*1266 FILLER_0_2_307
*1267 FILLER_0_2_309
*1268 FILLER_0_2_321
*1269 FILLER_0_2_333
*1270 FILLER_0_2_41
*1271 FILLER_0_2_53
*1272 FILLER_0_2_65
*1273 FILLER_0_2_77
*1274 FILLER_0_2_83
*1275 FILLER_0_2_85
*1276 FILLER_0_2_97
*1277 FILLER_0_30_104
*1278 FILLER_0_30_110
*1279 FILLER_0_30_125
*1280 FILLER_0_30_131
*1281 FILLER_0_30_138
*1282 FILLER_0_30_146
*1283 FILLER_0_30_15
*1284 FILLER_0_30_171
*1285 FILLER_0_30_177
*1286 FILLER_0_30_193
*1287 FILLER_0_30_197
*1288 FILLER_0_30_205
*1289 FILLER_0_30_212
*1290 FILLER_0_30_230
*1291 FILLER_0_30_237
*1292 FILLER_0_30_249
*1293 FILLER_0_30_253
*1294 FILLER_0_30_257
*1295 FILLER_0_30_27
*1296 FILLER_0_30_293
*1297 FILLER_0_30_3
*1298 FILLER_0_30_305
*1299 FILLER_0_30_309
*1300 FILLER_0_30_327
*1301 FILLER_0_30_34
*1302 FILLER_0_30_49
*1303 FILLER_0_30_57
*1304 FILLER_0_30_64
*1305 FILLER_0_30_76
*1306 FILLER_0_30_92
*1307 FILLER_0_31_101
*1308 FILLER_0_31_109
*1309 FILLER_0_31_113
*1310 FILLER_0_31_142
*1311 FILLER_0_31_149
*1312 FILLER_0_31_15
*1313 FILLER_0_31_158
*1314 FILLER_0_31_165
*1315 FILLER_0_31_169
*1316 FILLER_0_31_207
*1317 FILLER_0_31_225
*1318 FILLER_0_31_240
*1319 FILLER_0_31_262
*1320 FILLER_0_31_27
*1321 FILLER_0_31_270
*1322 FILLER_0_31_297
*1323 FILLER_0_31_3
*1324 FILLER_0_31_305
*1325 FILLER_0_31_332
*1326 FILLER_0_31_39
*1327 FILLER_0_31_43
*1328 FILLER_0_31_54
*1329 FILLER_0_31_72
*1330 FILLER_0_31_76
*1331 FILLER_0_31_80
*1332 FILLER_0_32_108
*1333 FILLER_0_32_112
*1334 FILLER_0_32_136
*1335 FILLER_0_32_141
*1336 FILLER_0_32_15
*1337 FILLER_0_32_153
*1338 FILLER_0_32_193
*1339 FILLER_0_32_203
*1340 FILLER_0_32_211
*1341 FILLER_0_32_237
*1342 FILLER_0_32_249
*1343 FILLER_0_32_253
*1344 FILLER_0_32_261
*1345 FILLER_0_32_27
*1346 FILLER_0_32_29
*1347 FILLER_0_32_293
*1348 FILLER_0_32_3
*1349 FILLER_0_32_332
*1350 FILLER_0_32_41
*1351 FILLER_0_32_60
*1352 FILLER_0_32_67
*1353 FILLER_0_32_82
*1354 FILLER_0_32_90
*1355 FILLER_0_33_135
*1356 FILLER_0_33_143
*1357 FILLER_0_33_153
*1358 FILLER_0_33_165
*1359 FILLER_0_33_169
*1360 FILLER_0_33_205
*1361 FILLER_0_33_223
*1362 FILLER_0_33_261
*1363 FILLER_0_33_265
*1364 FILLER_0_33_278
*1365 FILLER_0_33_295
*1366 FILLER_0_33_3
*1367 FILLER_0_33_303
*1368 FILLER_0_33_334
*1369 FILLER_0_33_35
*1370 FILLER_0_33_47
*1371 FILLER_0_33_70
*1372 FILLER_0_33_93
*1373 FILLER_0_34_105
*1374 FILLER_0_34_109
*1375 FILLER_0_34_11
*1376 FILLER_0_34_138
*1377 FILLER_0_34_145
*1378 FILLER_0_34_152
*1379 FILLER_0_34_166
*1380 FILLER_0_34_178
*1381 FILLER_0_34_195
*1382 FILLER_0_34_202
*1383 FILLER_0_34_208
*1384 FILLER_0_34_224
*1385 FILLER_0_34_237
*1386 FILLER_0_34_241
*1387 FILLER_0_34_245
*1388 FILLER_0_34_253
*1389 FILLER_0_34_265
*1390 FILLER_0_34_291
*1391 FILLER_0_34_3
*1392 FILLER_0_34_303
*1393 FILLER_0_34_309
*1394 FILLER_0_34_330
*1395 FILLER_0_34_334
*1396 FILLER_0_34_41
*1397 FILLER_0_34_53
*1398 FILLER_0_34_82
*1399 FILLER_0_34_93
*1400 FILLER_0_35_106
*1401 FILLER_0_35_113
*1402 FILLER_0_35_117
*1403 FILLER_0_35_166
*1404 FILLER_0_35_177
*1405 FILLER_0_35_189
*1406 FILLER_0_35_201
*1407 FILLER_0_35_205
*1408 FILLER_0_35_220
*1409 FILLER_0_35_231
*1410 FILLER_0_35_260
*1411 FILLER_0_35_268
*1412 FILLER_0_35_276
*1413 FILLER_0_35_294
*1414 FILLER_0_35_3
*1415 FILLER_0_35_328
*1416 FILLER_0_35_334
*1417 FILLER_0_35_43
*1418 FILLER_0_35_73
*1419 FILLER_0_35_77
*1420 FILLER_0_35_98
*1421 FILLER_0_36_11
*1422 FILLER_0_36_110
*1423 FILLER_0_36_125
*1424 FILLER_0_36_144
*1425 FILLER_0_36_150
*1426 FILLER_0_36_173
*1427 FILLER_0_36_177
*1428 FILLER_0_36_184
*1429 FILLER_0_36_197
*1430 FILLER_0_36_231
*1431 FILLER_0_36_235
*1432 FILLER_0_36_251
*1433 FILLER_0_36_253
*1434 FILLER_0_36_263
*1435 FILLER_0_36_29
*1436 FILLER_0_36_296
*1437 FILLER_0_36_3
*1438 FILLER_0_36_39
*1439 FILLER_0_36_51
*1440 FILLER_0_36_59
*1441 FILLER_0_37_113
*1442 FILLER_0_37_117
*1443 FILLER_0_37_147
*1444 FILLER_0_37_189
*1445 FILLER_0_37_225
*1446 FILLER_0_37_237
*1447 FILLER_0_37_243
*1448 FILLER_0_37_264
*1449 FILLER_0_37_3
*1450 FILLER_0_37_322
*1451 FILLER_0_37_333
*1452 FILLER_0_37_57
*1453 FILLER_0_37_65
*1454 FILLER_0_37_69
*1455 FILLER_0_37_7
*1456 FILLER_0_37_88
*1457 FILLER_0_38_10
*1458 FILLER_0_38_102
*1459 FILLER_0_38_110
*1460 FILLER_0_38_113
*1461 FILLER_0_38_125
*1462 FILLER_0_38_137
*1463 FILLER_0_38_14
*1464 FILLER_0_38_141
*1465 FILLER_0_38_153
*1466 FILLER_0_38_159
*1467 FILLER_0_38_167
*1468 FILLER_0_38_169
*1469 FILLER_0_38_177
*1470 FILLER_0_38_18
*1471 FILLER_0_38_186
*1472 FILLER_0_38_194
*1473 FILLER_0_38_197
*1474 FILLER_0_38_216
*1475 FILLER_0_38_22
*1476 FILLER_0_38_225
*1477 FILLER_0_38_237
*1478 FILLER_0_38_249
*1479 FILLER_0_38_253
*1480 FILLER_0_38_262
*1481 FILLER_0_38_271
*1482 FILLER_0_38_281
*1483 FILLER_0_38_333
*1484 FILLER_0_38_38
*1485 FILLER_0_38_42
*1486 FILLER_0_38_46
*1487 FILLER_0_38_50
*1488 FILLER_0_38_54
*1489 FILLER_0_38_57
*1490 FILLER_0_38_6
*1491 FILLER_0_38_62
*1492 FILLER_0_38_74
*1493 FILLER_0_38_82
*1494 FILLER_0_38_85
*1495 FILLER_0_3_105
*1496 FILLER_0_3_111
*1497 FILLER_0_3_113
*1498 FILLER_0_3_125
*1499 FILLER_0_3_137
*1500 FILLER_0_3_149
*1501 FILLER_0_3_15
*1502 FILLER_0_3_161
*1503 FILLER_0_3_167
*1504 FILLER_0_3_169
*1505 FILLER_0_3_181
*1506 FILLER_0_3_193
*1507 FILLER_0_3_205
*1508 FILLER_0_3_217
*1509 FILLER_0_3_223
*1510 FILLER_0_3_225
*1511 FILLER_0_3_237
*1512 FILLER_0_3_249
*1513 FILLER_0_3_261
*1514 FILLER_0_3_27
*1515 FILLER_0_3_273
*1516 FILLER_0_3_279
*1517 FILLER_0_3_281
*1518 FILLER_0_3_293
*1519 FILLER_0_3_3
*1520 FILLER_0_3_305
*1521 FILLER_0_3_317
*1522 FILLER_0_3_329
*1523 FILLER_0_3_39
*1524 FILLER_0_3_51
*1525 FILLER_0_3_55
*1526 FILLER_0_3_57
*1527 FILLER_0_3_69
*1528 FILLER_0_3_81
*1529 FILLER_0_3_93
*1530 FILLER_0_4_109
*1531 FILLER_0_4_121
*1532 FILLER_0_4_133
*1533 FILLER_0_4_139
*1534 FILLER_0_4_141
*1535 FILLER_0_4_15
*1536 FILLER_0_4_153
*1537 FILLER_0_4_165
*1538 FILLER_0_4_177
*1539 FILLER_0_4_189
*1540 FILLER_0_4_195
*1541 FILLER_0_4_197
*1542 FILLER_0_4_209
*1543 FILLER_0_4_221
*1544 FILLER_0_4_233
*1545 FILLER_0_4_245
*1546 FILLER_0_4_251
*1547 FILLER_0_4_253
*1548 FILLER_0_4_265
*1549 FILLER_0_4_27
*1550 FILLER_0_4_277
*1551 FILLER_0_4_289
*1552 FILLER_0_4_29
*1553 FILLER_0_4_3
*1554 FILLER_0_4_301
*1555 FILLER_0_4_307
*1556 FILLER_0_4_309
*1557 FILLER_0_4_321
*1558 FILLER_0_4_333
*1559 FILLER_0_4_41
*1560 FILLER_0_4_53
*1561 FILLER_0_4_65
*1562 FILLER_0_4_77
*1563 FILLER_0_4_83
*1564 FILLER_0_4_85
*1565 FILLER_0_4_97
*1566 FILLER_0_5_105
*1567 FILLER_0_5_111
*1568 FILLER_0_5_113
*1569 FILLER_0_5_125
*1570 FILLER_0_5_137
*1571 FILLER_0_5_149
*1572 FILLER_0_5_15
*1573 FILLER_0_5_161
*1574 FILLER_0_5_167
*1575 FILLER_0_5_169
*1576 FILLER_0_5_181
*1577 FILLER_0_5_193
*1578 FILLER_0_5_205
*1579 FILLER_0_5_217
*1580 FILLER_0_5_223
*1581 FILLER_0_5_225
*1582 FILLER_0_5_237
*1583 FILLER_0_5_249
*1584 FILLER_0_5_261
*1585 FILLER_0_5_27
*1586 FILLER_0_5_273
*1587 FILLER_0_5_279
*1588 FILLER_0_5_281
*1589 FILLER_0_5_293
*1590 FILLER_0_5_3
*1591 FILLER_0_5_305
*1592 FILLER_0_5_317
*1593 FILLER_0_5_329
*1594 FILLER_0_5_39
*1595 FILLER_0_5_51
*1596 FILLER_0_5_55
*1597 FILLER_0_5_57
*1598 FILLER_0_5_69
*1599 FILLER_0_5_81
*1600 FILLER_0_5_93
*1601 FILLER_0_6_109
*1602 FILLER_0_6_121
*1603 FILLER_0_6_133
*1604 FILLER_0_6_139
*1605 FILLER_0_6_141
*1606 FILLER_0_6_15
*1607 FILLER_0_6_153
*1608 FILLER_0_6_165
*1609 FILLER_0_6_177
*1610 FILLER_0_6_189
*1611 FILLER_0_6_195
*1612 FILLER_0_6_197
*1613 FILLER_0_6_209
*1614 FILLER_0_6_221
*1615 FILLER_0_6_233
*1616 FILLER_0_6_245
*1617 FILLER_0_6_251
*1618 FILLER_0_6_253
*1619 FILLER_0_6_265
*1620 FILLER_0_6_27
*1621 FILLER_0_6_277
*1622 FILLER_0_6_289
*1623 FILLER_0_6_29
*1624 FILLER_0_6_3
*1625 FILLER_0_6_301
*1626 FILLER_0_6_307
*1627 FILLER_0_6_309
*1628 FILLER_0_6_321
*1629 FILLER_0_6_333
*1630 FILLER_0_6_41
*1631 FILLER_0_6_53
*1632 FILLER_0_6_65
*1633 FILLER_0_6_77
*1634 FILLER_0_6_83
*1635 FILLER_0_6_85
*1636 FILLER_0_6_97
*1637 FILLER_0_7_105
*1638 FILLER_0_7_111
*1639 FILLER_0_7_113
*1640 FILLER_0_7_125
*1641 FILLER_0_7_137
*1642 FILLER_0_7_149
*1643 FILLER_0_7_15
*1644 FILLER_0_7_161
*1645 FILLER_0_7_167
*1646 FILLER_0_7_169
*1647 FILLER_0_7_181