*SPEF "ieee 1481-1999"
*DESIGN "tt_um_macros77_subneg"
*DATE "17:32:17 Saturday June 01, 2024"
*VENDOR "The OpenROAD Project"
*PROGRAM "OpenROAD"
*VERSION "0889970d1790a2617e69f253221b8bd7626e51dc"
*DESIGN_FLOW "NAME_SCOPE LOCAL" "PIN_CAP NONE"
*DIVIDER /
*DELIMITER :
*BUS_DELIMITER []
*T_UNIT 1 NS
*C_UNIT 1 PF
*R_UNIT 1 OHM
*L_UNIT 1 HENRY

*NAME_MAP
*3 clk
*4 ena
*5 rst_n
*6 ui_in[0]
*7 ui_in[1]
*8 ui_in[2]
*9 ui_in[3]
*10 ui_in[4]
*11 ui_in[5]
*12 ui_in[6]
*13 ui_in[7]
*14 uio_in[0]
*15 uio_in[1]
*16 uio_in[2]
*17 uio_in[3]
*18 uio_in[4]
*19 uio_in[5]
*20 uio_in[6]
*21 uio_in[7]
*22 uio_oe[0]
*23 uio_oe[1]
*24 uio_oe[2]
*25 uio_oe[3]
*26 uio_oe[4]
*27 uio_oe[5]
*28 uio_oe[6]
*29 uio_oe[7]
*30 uio_out[0]
*31 uio_out[1]
*32 uio_out[2]
*33 uio_out[3]
*34 uio_out[4]
*35 uio_out[5]
*36 uio_out[6]
*37 uio_out[7]
*38 uo_out[0]
*39 uo_out[1]
*40 uo_out[2]
*41 uo_out[3]
*42 uo_out[4]
*43 uo_out[5]
*44 uo_out[6]
*45 uo_out[7]
*46 PC\[0\]
*47 PC\[1\]
*48 PC\[2\]
*49 PC\[3\]
*50 PC\[4\]
*51 PC\[5\]
*52 PC\[6\]
*53 PC\[7\]
*54 _000_
*55 _001_
*56 _002_
*57 _003_
*58 _004_
*59 _005_
*60 _006_
*61 _007_
*62 _008_
*63 _009_
*64 _010_
*65 _011_
*66 _012_
*67 _013_
*68 _014_
*69 _015_
*70 _016_
*71 _017_
*72 _018_
*73 _019_
*74 _020_
*75 _021_
*76 _022_
*77 _023_
*78 _024_
*79 _025_
*80 _026_
*81 _027_
*82 _028_
*83 _029_
*84 _030_
*85 _031_
*86 _032_
*87 _033_
*88 _034_
*89 _035_
*90 _036_
*91 _037_
*92 _038_
*93 _039_
*94 _040_
*95 _041_
*96 _042_
*97 _043_
*98 _044_
*99 _045_
*100 _046_
*101 _047_
*102 _048_
*103 _049_
*104 _050_
*105 _051_
*106 _052_
*107 _053_
*108 _054_
*109 _055_
*110 _056_
*111 _057_
*112 _058_
*113 _059_
*114 _060_
*115 _061_
*116 _062_
*117 _063_
*118 _064_
*119 _065_
*120 _066_
*121 _067_
*122 _068_
*123 _069_
*124 _070_
*125 _071_
*126 _072_
*127 _073_
*128 _074_
*129 _075_
*130 _076_
*131 _077_
*132 _078_
*133 _079_
*134 _080_
*135 _081_
*136 _082_
*137 _083_
*138 _084_
*139 _085_
*140 _086_
*141 _087_
*142 _088_
*143 _089_
*144 _090_
*145 _091_
*146 _092_
*147 _093_
*148 _094_
*149 _095_
*150 _096_
*151 _097_
*152 _098_
*153 _099_
*154 _100_
*155 _101_
*156 _102_
*157 _103_
*158 _104_
*159 _105_
*160 _106_
*161 _107_
*162 _108_
*163 _109_
*164 _110_
*165 _111_
*166 _112_
*167 _113_
*168 _114_
*169 _115_
*170 _116_
*171 _117_
*172 _118_
*173 _119_
*174 _120_
*175 _121_
*176 _122_
*177 _123_
*178 _124_
*179 _125_
*180 _126_
*181 _127_
*182 _128_
*183 _129_
*184 _130_
*185 _131_
*186 _132_
*187 _133_
*188 _134_
*189 _135_
*190 _136_
*191 _137_
*192 _138_
*193 _139_
*194 _140_
*195 _141_
*196 _142_
*197 _143_
*198 _144_
*199 _145_
*200 _146_
*201 _147_
*202 _148_
*203 _149_
*204 _150_
*205 _151_
*206 _152_
*207 _153_
*208 _154_
*209 _155_
*210 _156_
*211 _157_
*212 _158_
*213 _159_
*214 _160_
*215 _161_
*216 _162_
*217 _163_
*218 _164_
*219 _165_
*220 _166_
*221 _167_
*222 _168_
*223 _169_
*224 _170_
*225 _171_
*226 _172_
*227 _173_
*228 _174_
*229 _175_
*230 _176_
*231 _177_
*232 _178_
*233 _179_
*234 _180_
*235 _181_
*236 _182_
*237 _183_
*238 _184_
*239 _185_
*240 _186_
*241 _187_
*242 _188_
*243 _189_
*244 _190_
*245 _191_
*246 _192_
*247 _193_
*248 _194_
*249 _195_
*250 _196_
*251 _197_
*252 _198_
*253 _199_
*254 _200_
*255 _201_
*256 _202_
*257 _203_
*258 _204_
*259 _205_
*260 _206_
*261 _207_
*262 _208_
*263 _209_
*264 _210_
*265 _211_
*266 _212_
*267 _213_
*268 _214_
*269 _215_
*270 _216_
*271 _217_
*272 _218_
*273 _219_
*274 _220_
*275 _221_
*276 _222_
*277 _223_
*278 _224_
*279 _225_
*280 _226_
*281 _227_
*282 _228_
*283 _229_
*284 _230_
*285 _231_
*286 _232_
*287 _233_
*288 _234_
*289 _235_
*290 _236_
*291 _237_
*292 _238_
*293 _239_
*294 _240_
*295 _241_
*296 _242_
*297 _243_
*298 _244_
*299 _245_
*300 _246_
*301 _247_
*302 _248_
*303 _249_
*304 _250_
*305 _251_
*306 _252_
*307 _253_
*308 _254_
*309 _255_
*310 _256_
*311 _257_
*312 _258_
*313 _259_
*314 _260_
*315 _261_
*316 _262_
*317 _263_
*318 _264_
*319 _265_
*320 _266_
*321 _267_
*322 _268_
*323 _269_
*324 _270_
*325 _271_
*326 _272_
*327 _273_
*328 _274_
*329 _275_
*330 _276_
*331 _277_
*332 _278_
*333 _279_
*334 _280_
*335 _281_
*336 _282_
*337 _283_
*338 _284_
*339 _285_
*340 _286_
*341 _287_
*342 _288_
*343 _289_
*344 _290_
*345 _291_
*346 _292_
*347 _293_
*348 _294_
*349 _295_
*350 _296_
*351 _297_
*352 _298_
*353 _299_
*354 _300_
*355 _301_
*356 _302_
*357 _303_
*358 _304_
*359 _305_
*360 _306_
*361 _307_
*362 _308_
*363 _309_
*364 _310_
*365 _311_
*366 _312_
*367 _313_
*368 _314_
*369 _315_
*370 _316_
*371 _317_
*372 _318_
*373 _319_
*374 _320_
*375 _321_
*376 _322_
*377 _323_
*378 _324_
*379 _325_
*380 _326_
*381 _327_
*382 _328_
*383 _329_
*384 _330_
*385 _331_
*386 _332_
*387 _333_
*388 _334_
*389 _335_
*390 _336_
*391 _337_
*392 addr_A\[0\]
*393 addr_A\[1\]
*394 addr_A\[2\]
*395 addr_A\[3\]
*396 addr_A\[4\]
*397 addr_A\[5\]
*398 addr_A\[6\]
*399 addr_A\[7\]
*400 addr_B\[0\]
*401 addr_B\[1\]
*402 addr_B\[2\]
*403 addr_B\[3\]
*404 addr_B\[4\]
*405 addr_B\[5\]
*406 addr_B\[6\]
*407 addr_B\[7\]
*408 addr_C\[0\]
*409 addr_C\[1\]
*410 addr_C\[2\]
*411 addr_C\[3\]
*412 addr_C\[4\]
*413 addr_C\[5\]
*414 addr_C\[6\]
*415 addr_C\[7\]
*416 clknet_0_clk
*417 clknet_3_0__leaf_clk
*418 clknet_3_1__leaf_clk
*419 clknet_3_2__leaf_clk
*420 clknet_3_3__leaf_clk
*421 clknet_3_4__leaf_clk
*422 clknet_3_5__leaf_clk
*423 clknet_3_6__leaf_clk
*424 clknet_3_7__leaf_clk
*425 mem_OE
*426 mem_WE
*427 mem_latch_CLK
*428 net1
*429 net10
*430 net11
*431 net12
*432 net13
*433 net14
*434 net15
*435 net16
*436 net17
*437 net18
*438 net19
*439 net2
*440 net20
*441 net21
*442 net22
*443 net23
*444 net24
*445 net25
*446 net26
*447 net27
*448 net28
*449 net29
*450 net3
*451 net30
*452 net31
*453 net32
*454 net33
*455 net34
*456 net35
*457 net36
*458 net37
*459 net38
*460 net39
*461 net4
*462 net40
*463 net41
*464 net42
*465 net43
*466 net44
*467 net5
*468 net6
*469 net7
*470 net8
*471 net9
*472 out_latch_CLK
*473 state\[0\]
*474 state\[1\]
*475 state\[2\]
*476 state\[3\]
*477 state\[4\]
*478 val_A\[0\]
*479 val_A\[1\]
*480 val_A\[2\]
*481 val_A\[3\]
*482 val_A\[4\]
*483 val_A\[5\]
*484 val_A\[6\]
*485 val_A\[7\]
*486 val_B\[0\]
*487 val_B\[1\]
*488 val_B\[2\]
*489 val_B\[3\]
*490 val_B\[4\]
*491 val_B\[5\]
*492 val_B\[6\]
*493 val_B\[7\]
*494 ANTENNA_1
*495 FILLER_0_0_109
*496 FILLER_0_0_113
*497 FILLER_0_0_125
*498 FILLER_0_0_137
*499 FILLER_0_0_141
*500 FILLER_0_0_15
*501 FILLER_0_0_153
*502 FILLER_0_0_165
*503 FILLER_0_0_169
*504 FILLER_0_0_181
*505 FILLER_0_0_193
*506 FILLER_0_0_197
*507 FILLER_0_0_209
*508 FILLER_0_0_221
*509 FILLER_0_0_225
*510 FILLER_0_0_237
*511 FILLER_0_0_249
*512 FILLER_0_0_253
*513 FILLER_0_0_265
*514 FILLER_0_0_27
*515 FILLER_0_0_277
*516 FILLER_0_0_281
*517 FILLER_0_0_29
*518 FILLER_0_0_293
*519 FILLER_0_0_3
*520 FILLER_0_0_305
*521 FILLER_0_0_309
*522 FILLER_0_0_321
*523 FILLER_0_0_333
*524 FILLER_0_0_41
*525 FILLER_0_0_53
*526 FILLER_0_0_57
*527 FILLER_0_0_69
*528 FILLER_0_0_81
*529 FILLER_0_0_85
*530 FILLER_0_0_97
*531 FILLER_0_10_109
*532 FILLER_0_10_121
*533 FILLER_0_10_133
*534 FILLER_0_10_139
*535 FILLER_0_10_141
*536 FILLER_0_10_15
*537 FILLER_0_10_153
*538 FILLER_0_10_165
*539 FILLER_0_10_177
*540 FILLER_0_10_189
*541 FILLER_0_10_195
*542 FILLER_0_10_197
*543 FILLER_0_10_209
*544 FILLER_0_10_221
*545 FILLER_0_10_233
*546 FILLER_0_10_245
*547 FILLER_0_10_251
*548 FILLER_0_10_253
*549 FILLER_0_10_265
*550 FILLER_0_10_27
*551 FILLER_0_10_277
*552 FILLER_0_10_289
*553 FILLER_0_10_29
*554 FILLER_0_10_3
*555 FILLER_0_10_301
*556 FILLER_0_10_307
*557 FILLER_0_10_309
*558 FILLER_0_10_321
*559 FILLER_0_10_333
*560 FILLER_0_10_41
*561 FILLER_0_10_53
*562 FILLER_0_10_65
*563 FILLER_0_10_77
*564 FILLER_0_10_83
*565 FILLER_0_10_85
*566 FILLER_0_10_97
*567 FILLER_0_11_105
*568 FILLER_0_11_111
*569 FILLER_0_11_113
*570 FILLER_0_11_125
*571 FILLER_0_11_137
*572 FILLER_0_11_149
*573 FILLER_0_11_15
*574 FILLER_0_11_161
*575 FILLER_0_11_167
*576 FILLER_0_11_169
*577 FILLER_0_11_181
*578 FILLER_0_11_193
*579 FILLER_0_11_205
*580 FILLER_0_11_217
*581 FILLER_0_11_223
*582 FILLER_0_11_225
*583 FILLER_0_11_237
*584 FILLER_0_11_249
*585 FILLER_0_11_261
*586 FILLER_0_11_27
*587 FILLER_0_11_273
*588 FILLER_0_11_279
*589 FILLER_0_11_281
*590 FILLER_0_11_293
*591 FILLER_0_11_3
*592 FILLER_0_11_305
*593 FILLER_0_11_317
*594 FILLER_0_11_329
*595 FILLER_0_11_39
*596 FILLER_0_11_51
*597 FILLER_0_11_55
*598 FILLER_0_11_57
*599 FILLER_0_11_69
*600 FILLER_0_11_81
*601 FILLER_0_11_93
*602 FILLER_0_12_109
*603 FILLER_0_12_121
*604 FILLER_0_12_133
*605 FILLER_0_12_139
*606 FILLER_0_12_141
*607 FILLER_0_12_15
*608 FILLER_0_12_153
*609 FILLER_0_12_165
*610 FILLER_0_12_177
*611 FILLER_0_12_189
*612 FILLER_0_12_195
*613 FILLER_0_12_197
*614 FILLER_0_12_209
*615 FILLER_0_12_221
*616 FILLER_0_12_233
*617 FILLER_0_12_245
*618 FILLER_0_12_251
*619 FILLER_0_12_253
*620 FILLER_0_12_265
*621 FILLER_0_12_27
*622 FILLER_0_12_277
*623 FILLER_0_12_289
*624 FILLER_0_12_29
*625 FILLER_0_12_3
*626 FILLER_0_12_301
*627 FILLER_0_12_307
*628 FILLER_0_12_309
*629 FILLER_0_12_321
*630 FILLER_0_12_333
*631 FILLER_0_12_41
*632 FILLER_0_12_53
*633 FILLER_0_12_65
*634 FILLER_0_12_77
*635 FILLER_0_12_83
*636 FILLER_0_12_85
*637 FILLER_0_12_97
*638 FILLER_0_13_105
*639 FILLER_0_13_111
*640 FILLER_0_13_113
*641 FILLER_0_13_125
*642 FILLER_0_13_137
*643 FILLER_0_13_149
*644 FILLER_0_13_15
*645 FILLER_0_13_161
*646 FILLER_0_13_167
*647 FILLER_0_13_169
*648 FILLER_0_13_181
*649 FILLER_0_13_193
*650 FILLER_0_13_205
*651 FILLER_0_13_217
*652 FILLER_0_13_223
*653 FILLER_0_13_225
*654 FILLER_0_13_237
*655 FILLER_0_13_249
*656 FILLER_0_13_261
*657 FILLER_0_13_27
*658 FILLER_0_13_273
*659 FILLER_0_13_279
*660 FILLER_0_13_281
*661 FILLER_0_13_293
*662 FILLER_0_13_3
*663 FILLER_0_13_305
*664 FILLER_0_13_317
*665 FILLER_0_13_329
*666 FILLER_0_13_39
*667 FILLER_0_13_51
*668 FILLER_0_13_55
*669 FILLER_0_13_57
*670 FILLER_0_13_69
*671 FILLER_0_13_81
*672 FILLER_0_13_93
*673 FILLER_0_14_109
*674 FILLER_0_14_121
*675 FILLER_0_14_133
*676 FILLER_0_14_139
*677 FILLER_0_14_141
*678 FILLER_0_14_15
*679 FILLER_0_14_153
*680 FILLER_0_14_165
*681 FILLER_0_14_177
*682 FILLER_0_14_189
*683 FILLER_0_14_195
*684 FILLER_0_14_197
*685 FILLER_0_14_209
*686 FILLER_0_14_221
*687 FILLER_0_14_233
*688 FILLER_0_14_245
*689 FILLER_0_14_251
*690 FILLER_0_14_253
*691 FILLER_0_14_265
*692 FILLER_0_14_27
*693 FILLER_0_14_277
*694 FILLER_0_14_289
*695 FILLER_0_14_29
*696 FILLER_0_14_3
*697 FILLER_0_14_301
*698 FILLER_0_14_307
*699 FILLER_0_14_309
*700 FILLER_0_14_321
*701 FILLER_0_14_333
*702 FILLER_0_14_41
*703 FILLER_0_14_53
*704 FILLER_0_14_65
*705 FILLER_0_14_77
*706 FILLER_0_14_83
*707 FILLER_0_14_85
*708 FILLER_0_14_97
*709 FILLER_0_15_105
*710 FILLER_0_15_111
*711 FILLER_0_15_113
*712 FILLER_0_15_125
*713 FILLER_0_15_137
*714 FILLER_0_15_149
*715 FILLER_0_15_15
*716 FILLER_0_15_161
*717 FILLER_0_15_167
*718 FILLER_0_15_169
*719 FILLER_0_15_181
*720 FILLER_0_15_193
*721 FILLER_0_15_205
*722 FILLER_0_15_217
*723 FILLER_0_15_223
*724 FILLER_0_15_225
*725 FILLER_0_15_237
*726 FILLER_0_15_249
*727 FILLER_0_15_261
*728 FILLER_0_15_27
*729 FILLER_0_15_273
*730 FILLER_0_15_279
*731 FILLER_0_15_281
*732 FILLER_0_15_293
*733 FILLER_0_15_3
*734 FILLER_0_15_305
*735 FILLER_0_15_317
*736 FILLER_0_15_329
*737 FILLER_0_15_39
*738 FILLER_0_15_51
*739 FILLER_0_15_55
*740 FILLER_0_15_57
*741 FILLER_0_15_69
*742 FILLER_0_15_81
*743 FILLER_0_15_93
*744 FILLER_0_16_109
*745 FILLER_0_16_121
*746 FILLER_0_16_133
*747 FILLER_0_16_139
*748 FILLER_0_16_141
*749 FILLER_0_16_15
*750 FILLER_0_16_153
*751 FILLER_0_16_165
*752 FILLER_0_16_177
*753 FILLER_0_16_189
*754 FILLER_0_16_195
*755 FILLER_0_16_197
*756 FILLER_0_16_209
*757 FILLER_0_16_221
*758 FILLER_0_16_233
*759 FILLER_0_16_245
*760 FILLER_0_16_251
*761 FILLER_0_16_253
*762 FILLER_0_16_265
*763 FILLER_0_16_27
*764 FILLER_0_16_277
*765 FILLER_0_16_289
*766 FILLER_0_16_29
*767 FILLER_0_16_3
*768 FILLER_0_16_301
*769 FILLER_0_16_307
*770 FILLER_0_16_309
*771 FILLER_0_16_321
*772 FILLER_0_16_333
*773 FILLER_0_16_41
*774 FILLER_0_16_53
*775 FILLER_0_16_65
*776 FILLER_0_16_77
*777 FILLER_0_16_83
*778 FILLER_0_16_85
*779 FILLER_0_16_97
*780 FILLER_0_17_106
*781 FILLER_0_17_113
*782 FILLER_0_17_130
*783 FILLER_0_17_142
*784 FILLER_0_17_148
*785 FILLER_0_17_15
*786 FILLER_0_17_165
*787 FILLER_0_17_169
*788 FILLER_0_17_181
*789 FILLER_0_17_193
*790 FILLER_0_17_205
*791 FILLER_0_17_217
*792 FILLER_0_17_223
*793 FILLER_0_17_225
*794 FILLER_0_17_237
*795 FILLER_0_17_249
*796 FILLER_0_17_261
*797 FILLER_0_17_27
*798 FILLER_0_17_273
*799 FILLER_0_17_279
*800 FILLER_0_17_281
*801 FILLER_0_17_293
*802 FILLER_0_17_3
*803 FILLER_0_17_305
*804 FILLER_0_17_317
*805 FILLER_0_17_329
*806 FILLER_0_17_39
*807 FILLER_0_17_50
*808 FILLER_0_17_66
*809 FILLER_0_17_74
*810 FILLER_0_17_94
*811 FILLER_0_18_101
*812 FILLER_0_18_107
*813 FILLER_0_18_139
*814 FILLER_0_18_141
*815 FILLER_0_18_145
*816 FILLER_0_18_15
*817 FILLER_0_18_168
*818 FILLER_0_18_180
*819 FILLER_0_18_191
*820 FILLER_0_18_206
*821 FILLER_0_18_218
*822 FILLER_0_18_230
*823 FILLER_0_18_242
*824 FILLER_0_18_250
*825 FILLER_0_18_253
*826 FILLER_0_18_265
*827 FILLER_0_18_27
*828 FILLER_0_18_277
*829 FILLER_0_18_289
*830 FILLER_0_18_29
*831 FILLER_0_18_3
*832 FILLER_0_18_301
*833 FILLER_0_18_307
*834 FILLER_0_18_309
*835 FILLER_0_18_321
*836 FILLER_0_18_333
*837 FILLER_0_18_41
*838 FILLER_0_19_102
*839 FILLER_0_19_108
*840 FILLER_0_19_11
*841 FILLER_0_19_135
*842 FILLER_0_19_143
*843 FILLER_0_19_166
*844 FILLER_0_19_175
*845 FILLER_0_19_183
*846 FILLER_0_19_225
*847 FILLER_0_19_255
*848 FILLER_0_19_267
*849 FILLER_0_19_279
*850 FILLER_0_19_28
*851 FILLER_0_19_281
*852 FILLER_0_19_293
*853 FILLER_0_19_3
*854 FILLER_0_19_305
*855 FILLER_0_19_317
*856 FILLER_0_19_329
*857 FILLER_0_19_48
*858 FILLER_0_19_80
*859 FILLER_0_19_84
*860 FILLER_0_19_95
*861 FILLER_0_1_105
*862 FILLER_0_1_111
*863 FILLER_0_1_113
*864 FILLER_0_1_125
*865 FILLER_0_1_137
*866 FILLER_0_1_149
*867 FILLER_0_1_15
*868 FILLER_0_1_161
*869 FILLER_0_1_167
*870 FILLER_0_1_169
*871 FILLER_0_1_181
*872 FILLER_0_1_193
*873 FILLER_0_1_205
*874 FILLER_0_1_217
*875 FILLER_0_1_223
*876 FILLER_0_1_225
*877 FILLER_0_1_237
*878 FILLER_0_1_249
*879 FILLER_0_1_261
*880 FILLER_0_1_27
*881 FILLER_0_1_273
*882 FILLER_0_1_279
*883 FILLER_0_1_281
*884 FILLER_0_1_293
*885 FILLER_0_1_3
*886 FILLER_0_1_305
*887 FILLER_0_1_317
*888 FILLER_0_1_329
*889 FILLER_0_1_39
*890 FILLER_0_1_51
*891 FILLER_0_1_55
*892 FILLER_0_1_57
*893 FILLER_0_1_69
*894 FILLER_0_1_81
*895 FILLER_0_1_93
*896 FILLER_0_20_117
*897 FILLER_0_20_129
*898 FILLER_0_20_137
*899 FILLER_0_20_141
*900 FILLER_0_20_147
*901 FILLER_0_20_164
*902 FILLER_0_20_176
*903 FILLER_0_20_188
*904 FILLER_0_20_217
*905 FILLER_0_20_259
*906 FILLER_0_20_271
*907 FILLER_0_20_283
*908 FILLER_0_20_295
*909 FILLER_0_20_3
*910 FILLER_0_20_307
*911 FILLER_0_20_309
*912 FILLER_0_20_321
*913 FILLER_0_20_333
*914 FILLER_0_20_46
*915 FILLER_0_20_57
*916 FILLER_0_20_65
*917 FILLER_0_20_77
*918 FILLER_0_20_83
*919 FILLER_0_21_119
*920 FILLER_0_21_131
*921 FILLER_0_21_137
*922 FILLER_0_21_15
*923 FILLER_0_21_157
*924 FILLER_0_21_165
*925 FILLER_0_21_169
*926 FILLER_0_21_181
*927 FILLER_0_21_185
*928 FILLER_0_21_218
*929 FILLER_0_21_244
*930 FILLER_0_21_265
*931 FILLER_0_21_277
*932 FILLER_0_21_281
*933 FILLER_0_21_293
*934 FILLER_0_21_3
*935 FILLER_0_21_305
*936 FILLER_0_21_317
*937 FILLER_0_21_329
*938 FILLER_0_21_38
*939 FILLER_0_21_50
*940 FILLER_0_21_54
*941 FILLER_0_21_57
*942 FILLER_0_21_71
*943 FILLER_0_21_83
*944 FILLER_0_21_91
*945 FILLER_0_21_99
*946 FILLER_0_22_114
*947 FILLER_0_22_126
*948 FILLER_0_22_141
*949 FILLER_0_22_159
*950 FILLER_0_22_171
*951 FILLER_0_22_183
*952 FILLER_0_22_189
*953 FILLER_0_22_193
*954 FILLER_0_22_220
*955 FILLER_0_22_228
*956 FILLER_0_22_246
*957 FILLER_0_22_27
*958 FILLER_0_22_270
*959 FILLER_0_22_282
*960 FILLER_0_22_29
*961 FILLER_0_22_294
*962 FILLER_0_22_3
*963 FILLER_0_22_306
*964 FILLER_0_22_309
*965 FILLER_0_22_321
*966 FILLER_0_22_333
*967 FILLER_0_22_47
*968 FILLER_0_22_85
*969 FILLER_0_22_97
*970 FILLER_0_23_117
*971 FILLER_0_23_129
*972 FILLER_0_23_162
*973 FILLER_0_23_167
*974 FILLER_0_23_169
*975 FILLER_0_23_177
*976 FILLER_0_23_186
*977 FILLER_0_23_197
*978 FILLER_0_23_201
*979 FILLER_0_23_204
*980 FILLER_0_23_223
*981 FILLER_0_23_225
*982 FILLER_0_23_233
*983 FILLER_0_23_269
*984 FILLER_0_23_277
*985 FILLER_0_23_281
*986 FILLER_0_23_293
*987 FILLER_0_23_3
*988 FILLER_0_23_305
*989 FILLER_0_23_317
*990 FILLER_0_23_329
*991 FILLER_0_23_43
*992 FILLER_0_23_51
*993 FILLER_0_23_86
*994 FILLER_0_24_11
*995 FILLER_0_24_115
*996 FILLER_0_24_127
*997 FILLER_0_24_136
*998 FILLER_0_24_141
*999 FILLER_0_24_150
*1000 FILLER_0_24_162
*1001 FILLER_0_24_168
*1002 FILLER_0_24_194
*1003 FILLER_0_24_20
*1004 FILLER_0_24_221
*1005 FILLER_0_24_249
*1006 FILLER_0_24_260
*1007 FILLER_0_24_278
*1008 FILLER_0_24_290
*1009 FILLER_0_24_3
*1010 FILLER_0_24_302
*1011 FILLER_0_24_309
*1012 FILLER_0_24_321
*1013 FILLER_0_24_333
*1014 FILLER_0_24_43
*1015 FILLER_0_24_50
*1016 FILLER_0_24_79
*1017 FILLER_0_24_83
*1018 FILLER_0_24_85
*1019 FILLER_0_24_97
*1020 FILLER_0_25_109
*1021 FILLER_0_25_11
*1022 FILLER_0_25_117
*1023 FILLER_0_25_128
*1024 FILLER_0_25_140
*1025 FILLER_0_25_151
*1026 FILLER_0_25_163
*1027 FILLER_0_25_167
*1028 FILLER_0_25_169
*1029 FILLER_0_25_177
*1030 FILLER_0_25_192
*1031 FILLER_0_25_196
*1032 FILLER_0_25_218
*1033 FILLER_0_25_225
*1034 FILLER_0_25_269
*1035 FILLER_0_25_277
*1036 FILLER_0_25_281
*1037 FILLER_0_25_293
*1038 FILLER_0_25_3
*1039 FILLER_0_25_30
*1040 FILLER_0_25_305
*1041 FILLER_0_25_317
*1042 FILLER_0_25_329
*1043 FILLER_0_25_44
*1044 FILLER_0_25_52
*1045 FILLER_0_25_57
*1046 FILLER_0_25_70
*1047 FILLER_0_25_82
*1048 FILLER_0_25_94
*1049 FILLER_0_26_108
*1050 FILLER_0_26_117
*1051 FILLER_0_26_121
*1052 FILLER_0_26_138
*1053 FILLER_0_26_161
*1054 FILLER_0_26_176
*1055 FILLER_0_26_186
*1056 FILLER_0_26_225
*1057 FILLER_0_26_231
*1058 FILLER_0_26_251
*1059 FILLER_0_26_253
*1060 FILLER_0_26_277
*1061 FILLER_0_26_289
*1062 FILLER_0_26_3
*1063 FILLER_0_26_301
*1064 FILLER_0_26_307
*1065 FILLER_0_26_309
*1066 FILLER_0_26_321
*1067 FILLER_0_26_333
*1068 FILLER_0_26_70
*1069 FILLER_0_26_82
*1070 FILLER_0_26_85
*1071 FILLER_0_27_101
*1072 FILLER_0_27_116
*1073 FILLER_0_27_124
*1074 FILLER_0_27_149
*1075 FILLER_0_27_15
*1076 FILLER_0_27_167
*1077 FILLER_0_27_172
*1078 FILLER_0_27_184
*1079 FILLER_0_27_193
*1080 FILLER_0_27_21
*1081 FILLER_0_27_220
*1082 FILLER_0_27_230
*1083 FILLER_0_27_234
*1084 FILLER_0_27_240
*1085 FILLER_0_27_259
*1086 FILLER_0_27_271
*1087 FILLER_0_27_279
*1088 FILLER_0_27_281
*1089 FILLER_0_27_293
*1090 FILLER_0_27_3
*1091 FILLER_0_27_305
*1092 FILLER_0_27_317
*1093 FILLER_0_27_329
*1094 FILLER_0_27_39
*1095 FILLER_0_27_51
*1096 FILLER_0_27_55
*1097 FILLER_0_27_57
*1098 FILLER_0_27_61
*1099 FILLER_0_28_111
*1100 FILLER_0_28_119
*1101 FILLER_0_28_124
*1102 FILLER_0_28_141
*1103 FILLER_0_28_15
*1104 FILLER_0_28_177
*1105 FILLER_0_28_189
*1106 FILLER_0_28_195
*1107 FILLER_0_28_197
*1108 FILLER_0_28_203
*1109 FILLER_0_28_221
*1110 FILLER_0_28_233
*1111 FILLER_0_28_24
*1112 FILLER_0_28_251
*1113 FILLER_0_28_269
*1114 FILLER_0_28_281
*1115 FILLER_0_28_293
*1116 FILLER_0_28_3
*1117 FILLER_0_28_305
*1118 FILLER_0_28_309
*1119 FILLER_0_28_321
*1120 FILLER_0_28_333
*1121 FILLER_0_28_46
*1122 FILLER_0_28_58
*1123 FILLER_0_28_66
*1124 FILLER_0_28_77
*1125 FILLER_0_28_85
*1126 FILLER_0_29_110
*1127 FILLER_0_29_113
*1128 FILLER_0_29_125
*1129 FILLER_0_29_133
*1130 FILLER_0_29_15
*1131 FILLER_0_29_156
*1132 FILLER_0_29_197
*1133 FILLER_0_29_205
*1134 FILLER_0_29_212
*1135 FILLER_0_29_222
*1136 FILLER_0_29_225
*1137 FILLER_0_29_237
*1138 FILLER_0_29_262
*1139 FILLER_0_29_274
*1140 FILLER_0_29_281
*1141 FILLER_0_29_293
*1142 FILLER_0_29_3
*1143 FILLER_0_29_305
*1144 FILLER_0_29_317
*1145 FILLER_0_29_329
*1146 FILLER_0_29_33
*1147 FILLER_0_29_39
*1148 FILLER_0_29_57
*1149 FILLER_0_29_67
*1150 FILLER_0_29_75
*1151 FILLER_0_29_86
*1152 FILLER_0_29_98
*1153 FILLER_0_2_109
*1154 FILLER_0_2_121
*1155 FILLER_0_2_133
*1156 FILLER_0_2_139
*1157 FILLER_0_2_141
*1158 FILLER_0_2_15
*1159 FILLER_0_2_153
*1160 FILLER_0_2_165
*1161 FILLER_0_2_177
*1162 FILLER_0_2_189
*1163 FILLER_0_2_195
*1164 FILLER_0_2_197
*1165 FILLER_0_2_209
*1166 FILLER_0_2_221
*1167 FILLER_0_2_233
*1168 FILLER_0_2_245
*1169 FILLER_0_2_251
*1170 FILLER_0_2_253
*1171 FILLER_0_2_265
*1172 FILLER_0_2_27
*1173 FILLER_0_2_277
*1174 FILLER_0_2_289
*1175 FILLER_0_2_29
*1176 FILLER_0_2_3
*1177 FILLER_0_2_301
*1178 FILLER_0_2_307
*1179 FILLER_0_2_309
*1180 FILLER_0_2_321
*1181 FILLER_0_2_333
*1182 FILLER_0_2_41
*1183 FILLER_0_2_53
*1184 FILLER_0_2_65
*1185 FILLER_0_2_77
*1186 FILLER_0_2_83
*1187 FILLER_0_2_85
*1188 FILLER_0_2_97
*1189 FILLER_0_30_103
*1190 FILLER_0_30_113
*1191 FILLER_0_30_125
*1192 FILLER_0_30_137
*1193 FILLER_0_30_154
*1194 FILLER_0_30_174
*1195 FILLER_0_30_187
*1196 FILLER_0_30_197
*1197 FILLER_0_30_209
*1198 FILLER_0_30_213
*1199 FILLER_0_30_230
*1200 FILLER_0_30_242
*1201 FILLER_0_30_250
*1202 FILLER_0_30_253
*1203 FILLER_0_30_265
*1204 FILLER_0_30_277
*1205 FILLER_0_30_289
*1206 FILLER_0_30_3
*1207 FILLER_0_30_301
*1208 FILLER_0_30_307
*1209 FILLER_0_30_309
*1210 FILLER_0_30_321
*1211 FILLER_0_30_333
*1212 FILLER_0_30_46
*1213 FILLER_0_30_59
*1214 FILLER_0_30_78
*1215 FILLER_0_30_91
*1216 FILLER_0_31_121
*1217 FILLER_0_31_125
*1218 FILLER_0_31_135
*1219 FILLER_0_31_142
*1220 FILLER_0_31_154
*1221 FILLER_0_31_166
*1222 FILLER_0_31_169
*1223 FILLER_0_31_205
*1224 FILLER_0_31_217
*1225 FILLER_0_31_222
*1226 FILLER_0_31_228
*1227 FILLER_0_31_252
*1228 FILLER_0_31_256
*1229 FILLER_0_31_273
*1230 FILLER_0_31_279
*1231 FILLER_0_31_281
*1232 FILLER_0_31_293
*1233 FILLER_0_31_3
*1234 FILLER_0_31_305
*1235 FILLER_0_31_317
*1236 FILLER_0_31_329
*1237 FILLER_0_31_45
*1238 FILLER_0_31_53
*1239 FILLER_0_31_80
*1240 FILLER_0_32_105
*1241 FILLER_0_32_11
*1242 FILLER_0_32_114
*1243 FILLER_0_32_155
*1244 FILLER_0_32_164
*1245 FILLER_0_32_194
*1246 FILLER_0_32_201
*1247 FILLER_0_32_221
*1248 FILLER_0_32_253
*1249 FILLER_0_32_272
*1250 FILLER_0_32_284
*1251 FILLER_0_32_296
*1252 FILLER_0_32_3
*1253 FILLER_0_32_309
*1254 FILLER_0_32_321
*1255 FILLER_0_32_333
*1256 FILLER_0_32_46
*1257 FILLER_0_32_77
*1258 FILLER_0_32_83
*1259 FILLER_0_33_107
*1260 FILLER_0_33_111
*1261 FILLER_0_33_127
*1262 FILLER_0_33_139
*1263 FILLER_0_33_15
*1264 FILLER_0_33_151
*1265 FILLER_0_33_155
*1266 FILLER_0_33_164
*1267 FILLER_0_33_196
*1268 FILLER_0_33_223
*1269 FILLER_0_33_225
*1270 FILLER_0_33_232
*1271 FILLER_0_33_268
*1272 FILLER_0_33_281
*1273 FILLER_0_33_293
*1274 FILLER_0_33_3
*1275 FILLER_0_33_305
*1276 FILLER_0_33_317
*1277 FILLER_0_33_329
*1278 FILLER_0_33_46
*1279 FILLER_0_33_53
*1280 FILLER_0_33_86
*1281 FILLER_0_34_137
*1282 FILLER_0_34_146
*1283 FILLER_0_34_15
*1284 FILLER_0_34_161
*1285 FILLER_0_34_169
*1286 FILLER_0_34_175
*1287 FILLER_0_34_187
*1288 FILLER_0_34_197
*1289 FILLER_0_34_209
*1290 FILLER_0_34_221
*1291 FILLER_0_34_23
*1292 FILLER_0_34_251
*1293 FILLER_0_34_270
*1294 FILLER_0_34_282
*1295 FILLER_0_34_29
*1296 FILLER_0_34_294
*1297 FILLER_0_34_3
*1298 FILLER_0_34_306
*1299 FILLER_0_34_309
*1300 FILLER_0_34_321
*1301 FILLER_0_34_333
*1302 FILLER_0_34_69
*1303 FILLER_0_34_83
*1304 FILLER_0_34_92
*1305 FILLER_0_35_105
*1306 FILLER_0_35_111
*1307 FILLER_0_35_15
*1308 FILLER_0_35_158
*1309 FILLER_0_35_162
*1310 FILLER_0_35_169
*1311 FILLER_0_35_193
*1312 FILLER_0_35_201
*1313 FILLER_0_35_210
*1314 FILLER_0_35_222
*1315 FILLER_0_35_225
*1316 FILLER_0_35_248
*1317 FILLER_0_35_261
*1318 FILLER_0_35_27
*1319 FILLER_0_35_281
*1320 FILLER_0_35_293
*1321 FILLER_0_35_3
*1322 FILLER_0_35_305
*1323 FILLER_0_35_317
*1324 FILLER_0_35_329
*1325 FILLER_0_35_47
*1326 FILLER_0_35_55
*1327 FILLER_0_35_74
*1328 FILLER_0_35_91
*1329 FILLER_0_35_95
*1330 FILLER_0_36_119
*1331 FILLER_0_36_123
*1332 FILLER_0_36_15
*1333 FILLER_0_36_197
*1334 FILLER_0_36_220
*1335 FILLER_0_36_237
*1336 FILLER_0_36_257
*1337 FILLER_0_36_269
*1338 FILLER_0_36_27
*1339 FILLER_0_36_281
*1340 FILLER_0_36_29
*1341 FILLER_0_36_293
*1342 FILLER_0_36_3
*1343 FILLER_0_36_305
*1344 FILLER_0_36_309
*1345 FILLER_0_36_321
*1346 FILLER_0_36_333
*1347 FILLER_0_36_41
*1348 FILLER_0_36_53
*1349 FILLER_0_36_61
*1350 FILLER_0_36_80
*1351 FILLER_0_36_91
*1352 FILLER_0_37_102
*1353 FILLER_0_37_113
*1354 FILLER_0_37_134
*1355 FILLER_0_37_142
*1356 FILLER_0_37_15
*1357 FILLER_0_37_164
*1358 FILLER_0_37_169
*1359 FILLER_0_37_200
*1360 FILLER_0_37_220
*1361 FILLER_0_37_231
*1362 FILLER_0_37_267
*1363 FILLER_0_37_279
*1364 FILLER_0_37_28
*1365 FILLER_0_37_281
*1366 FILLER_0_37_293
*1367 FILLER_0_37_3
*1368 FILLER_0_37_305
*1369 FILLER_0_37_317
*1370 FILLER_0_37_329
*1371 FILLER_0_37_36
*1372 FILLER_0_37_44
*1373 FILLER_0_37_57
*1374 FILLER_0_37_65
*1375 FILLER_0_38_104
*1376 FILLER_0_38_111
*1377 FILLER_0_38_113
*1378 FILLER_0_38_125
*1379 FILLER_0_38_137
*1380 FILLER_0_38_141
*1381 FILLER_0_38_149
*1382 FILLER_0_38_15
*1383 FILLER_0_38_161
*1384 FILLER_0_38_167
*1385 FILLER_0_38_169
*1386 FILLER_0_38_187
*1387 FILLER_0_38_197
*1388 FILLER_0_38_223
*1389 FILLER_0_38_225
*1390 FILLER_0_38_231
*1391 FILLER_0_38_239
*1392 FILLER_0_38_246
*1393 FILLER_0_38_257
*1394 FILLER_0_38_269
*1395 FILLER_0_38_27
*1396 FILLER_0_38_277
*1397 FILLER_0_38_281
*1398 FILLER_0_38_29
*1399 FILLER_0_38_293
*1400 FILLER_0_38_3
*1401 FILLER_0_38_302
*1402 FILLER_0_38_312
*1403 FILLER_0_38_319
*1404 FILLER_0_38_333
*1405 FILLER_0_38_41
*1406 FILLER_0_38_53
*1407 FILLER_0_38_79
*1408 FILLER_0_38_83
*1409 FILLER_0_38_85
*1410 FILLER_0_38_92
*1411 FILLER_0_3_105
*1412 FILLER_0_3_111
*1413 FILLER_0_3_113
*1414 FILLER_0_3_125
*1415 FILLER_0_3_137
*1416 FILLER_0_3_149
*1417 FILLER_0_3_15
*1418 FILLER_0_3_161
*1419 FILLER_0_3_167
*1420 FILLER_0_3_169
*1421 FILLER_0_3_181
*1422 FILLER_0_3_193
*1423 FILLER_0_3_205
*1424 FILLER_0_3_217
*1425 FILLER_0_3_223
*1426 FILLER_0_3_225
*1427 FILLER_0_3_237
*1428 FILLER_0_3_249
*1429 FILLER_0_3_261
*1430 FILLER_0_3_27
*1431 FILLER_0_3_273
*1432 FILLER_0_3_279
*1433 FILLER_0_3_281
*1434 FILLER_0_3_293
*1435 FILLER_0_3_3
*1436 FILLER_0_3_305
*1437 FILLER_0_3_317
*1438 FILLER_0_3_329
*1439 FILLER_0_3_39
*1440 FILLER_0_3_51
*1441 FILLER_0_3_55
*1442 FILLER_0_3_57
*1443 FILLER_0_3_69
*1444 FILLER_0_3_81
*1445 FILLER_0_3_93
*1446 FILLER_0_4_109
*1447 FILLER_0_4_121
*1448 FILLER_0_4_133
*1449 FILLER_0_4_139
*1450 FILLER_0_4_141
*1451 FILLER_0_4_15
*1452 FILLER_0_4_153
*1453 FILLER_0_4_165
*1454 FILLER_0_4_177
*1455 FILLER_0_4_189
*1456 FILLER_0_4_195
*1457 FILLER_0_4_197
*1458 FILLER_0_4_209
*1459 FILLER_0_4_221
*1460 FILLER_0_4_233
*1461 FILLER_0_4_245
*1462 FILLER_0_4_251
*1463 FILLER_0_4_253
*1464 FILLER_0_4_265
*1465 FILLER_0_4_27
*1466 FILLER_0_4_277
*1467 FILLER_0_4_289
*1468 FILLER_0_4_29
*1469 FILLER_0_4_3
*1470 FILLER_0_4_301
*1471 FILLER_0_4_307
*1472 FILLER_0_4_309
*1473 FILLER_0_4_321
*1474 FILLER_0_4_333
*1475 FILLER_0_4_41
*1476 FILLER_0_4_53
*1477 FILLER_0_4_65
*1478 FILLER_0_4_77
*1479 FILLER_0_4_83
*1480 FILLER_0_4_85
*1481 FILLER_0_4_97
*1482 FILLER_0_5_105
*1483 FILLER_0_5_111
*1484 FILLER_0_5_113
*1485 FILLER_0_5_125
*1486 FILLER_0_5_137
*1487 FILLER_0_5_149
*1488 FILLER_0_5_15
*1489 FILLER_0_5_161
*1490 FILLER_0_5_167
*1491 FILLER_0_5_169
*1492 FILLER_0_5_181
*1493 FILLER_0_5_193
*1494 FILLER_0_5_205
*1495 FILLER_0_5_217
*1496 FILLER_0_5_223
*1497 FILLER_0_5_225
*1498 FILLER_0_5_237
*1499 FILLER_0_5_249
*1500 FILLER_0_5_261
*1501 FILLER_0_5_27
*1502 FILLER_0_5_273
*1503 FILLER_0_5_279
*1504 FILLER_0_5_281
*1505 FILLER_0_5_293
*1506 FILLER_0_5_3
*1507 FILLER_0_5_305
*1508 FILLER_0_5_317
*1509 FILLER_0_5_329
*1510 FILLER_0_5_39
*1511 FILLER_0_5_51
*1512 FILLER_0_5_55
*1513 FILLER_0_5_57
*1514 FILLER_0_5_69
*1515 FILLER_0_5_81
*1516 FILLER_0_5_93
*1517 FILLER_0_6_109
*1518 FILLER_0_6_121
*1519 FILLER_0_6_133
*1520 FILLER_0_6_139
*1521 FILLER_0_6_141
*1522 FILLER_0_6_15
*1523 FILLER_0_6_153
*1524 FILLER_0_6_165
*1525 FILLER_0_6_177
*1526 FILLER_0_6_189
*1527 FILLER_0_6_195
*1528 FILLER_0_6_197
*1529 FILLER_0_6_209
*1530 FILLER_0_6_221
*1531 FILLER_0_6_233
*1532 FILLER_0_6_245
*1533 FILLER_0_6_251
*1534 FILLER_0_6_253
*1535 FILLER_0_6_265
*1536 FILLER_0_6_27
*1537 FILLER_0_6_277
*1538 FILLER_0_6_289
*1539 FILLER_0_6_29
*1540 FILLER_0_6_3
*1541 FILLER_0_6_301
*1542 FILLER_0_6_307
*1543 FILLER_0_6_309
*1544 FILLER_0_6_321
*1545 FILLER_0_6_333
*1546 FILLER_0_6_41
*1547 FILLER_0_6_53
*1548 FILLER_0_6_65
*1549 FILLER_0_6_77
*1550 FILLER_0_6_83
*1551 FILLER_0_6_85
*1552 FILLER_0_6_97
*1553 FILLER_0_7_105
*1554 FILLER_0_7_111
*1555 FILLER_0_7_113
*1556 FILLER_0_7_125
*1557 FILLER_0_7_137
*1558 FILLER_0_7_149
*1559 FILLER_0_7_15
*1560 FILLER_0_7_161
*1561 FILLER_0_7_167
*1562 FILLER_0_7_169
*1563 FILLER_0_7_181
*1564 FILLER_0_7_193
*1565 FILLER_0_7_205
*1566 FILLER_0_7_217
*1567 FILLER_0_7_223
*1568 FILLER_0_7_225
*1569 FILLER_0_7_237
*1570 FILLER_0_7_249
*1571 FILLER_0_7_261
*1572 FILLER_0_7_27
*1573 FILLER_0_7_273
*1574 FILLER_0_7_279
*1575 FILLER_0_7_281
*1576 FILLER_0_7_293
*1577 FILLER_0_7_3
*1578 FILLER_0_7_305
*1579 FILLER_0_7_317
*1580 FILLER_0_7_329
*1581 FILLER_0_7_39
*1582 FILLER_0_7_51
*1583 FILLER_0_7_55
*1584 FILLER_0_7_57
*1585 FILLER_0_7_69
*1586 FILLER_0_7_81
*1587 FILLER_0_7_93
*1588 FILLER_0_8_109
*1589 FILLER_0_8_121
*1590 FILLER_0_8_133
*1591 FILLER_0_8_139
*1592 FILLER_0_8_141
*1593 FILLER_0_8_15
*1594 FILLER_0_8_153
*1595 FILLER_0_8_165
*1596 FILLER_0_8_177
*1597 FILLER_0_8_189
*1598 FILLER_0_8_195
*1599 FILLER_0_8_197
*1600 FILLER_0_8_209
*1601 FILLER_0_8_221
*1602 FILLER_0_8_233
*1603 FILLER_0_8_245
*1604 FILLER_0_8_251
*1605 FILLER_0_8_253
*1606 FILLER_0_8_265
*1607 FILLER_0_8_27
*1608 FILLER_0_8_277
*1609 FILLER_0_8_289
*1610 FILLER_0_8_29
*1611 FILLER_0_8_3
*1612 FILLER_0_8_301
*1613 FILLER_0_8_307
*1614 FILLER_0_8_309
*1615 FILLER_0_8_321
*1616 FILLER_0_8_333
*1617 FILLER_0_8_41
*1618 FILLER_0_8_53
*1619 FILLER_0_8_65
*1620 FILLER_0_8_77
*1621 FILLER_0_8_83
*1622 FILLER_0_8_85
*1623 FILLER_0_8_97
*1624 FILLER_0_9_105
*1625 FILLER_0_9_111
*1626 FILLER_0_9_113
*1627 FILLER_0_9_125
*1628 FILLER_0_9_137