*SPEF "ieee 1481-1999"
*DESIGN "tt_um_pwm_elded"
*DATE "01:07:19 Saturday June 01, 2024"
*VENDOR "The OpenROAD Project"
*PROGRAM "OpenROAD"
*VERSION "da0053d7b0014ab9c87ea148875ff6c2a0f9b658"
*DESIGN_FLOW "NAME_SCOPE LOCAL" "PIN_CAP NONE"
*DIVIDER /
*DELIMITER :
*BUS_DELIMITER []
*T_UNIT 1 NS
*C_UNIT 1 PF
*R_UNIT 1 OHM
*L_UNIT 1 HENRY

*NAME_MAP
*3 clk
*4 ena
*5 rst_n
*6 ui_in[0]
*7 ui_in[1]
*8 ui_in[2]
*9 ui_in[3]
*10 ui_in[4]
*11 ui_in[5]
*12 ui_in[6]
*13 ui_in[7]
*14 uio_in[0]
*15 uio_in[1]
*16 uio_in[2]
*17 uio_in[3]
*18 uio_in[4]
*19 uio_in[5]
*20 uio_in[6]
*21 uio_in[7]
*22 net11
*23 net12
*24 net13
*25 net14
*26 net15
*27 net16
*28 net17
*29 net18
*30 net19
*31 net20
*32 net21
*33 net22
*34 net23
*35 net24
*36 net25
*37 net26
*38 uo_out[0]
*39 uo_out[1]
*40 uo_out[2]
*41 net27
*42 net28
*43 net29
*44 net30
*45 net31
*46 _000_
*47 _001_
*48 _002_
*49 _003_
*50 _004_
*51 _005_
*52 _006_
*53 _007_
*54 _008_
*55 _009_
*56 _010_
*57 _011_
*58 _012_
*59 _013_
*60 _014_
*61 _015_
*62 _016_
*63 _017_
*64 _018_
*65 _019_
*66 _020_
*67 _021_
*68 _022_
*69 _023_
*70 _024_
*71 _025_
*72 _026_
*73 _027_
*74 _028_
*75 _029_
*76 _030_
*77 _031_
*78 _032_
*79 _033_
*80 _034_
*81 _035_
*82 _036_
*83 _037_
*84 _038_
*85 _039_
*86 _040_
*87 _041_
*88 _042_
*89 _043_
*90 _044_
*91 _045_
*92 _046_
*93 _047_
*94 _048_
*95 _049_
*96 _050_
*97 _051_
*98 _052_
*99 _053_
*100 _054_
*101 _055_
*102 _056_
*103 _057_
*104 _058_
*105 _059_
*106 _060_
*107 _061_
*108 _062_
*109 _063_
*110 _064_
*111 _065_
*112 _066_
*113 _067_
*114 _068_
*115 _069_
*116 _070_
*117 _071_
*118 _072_
*119 _073_
*120 _074_
*121 _075_
*122 _076_
*123 _077_
*124 _078_
*125 _079_
*126 _080_
*127 _081_
*128 _082_
*129 _083_
*130 _084_
*131 _085_
*132 _086_
*133 _087_
*134 _088_
*135 _089_
*136 _090_
*137 _091_
*138 _092_
*139 _093_
*140 _094_
*141 _095_
*142 _096_
*143 _097_
*144 _098_
*145 _099_
*146 _100_
*147 _101_
*148 _102_
*149 _103_
*150 _104_
*151 _105_
*152 _106_
*153 _107_
*154 _108_
*155 _109_
*156 _110_
*157 _111_
*158 _112_
*159 _113_
*160 _114_
*161 _115_
*162 _116_
*163 _117_
*164 _118_
*165 _119_
*166 _120_
*167 _121_
*168 _122_
*169 _123_
*170 _124_
*171 _125_
*172 _126_
*173 _127_
*174 _128_
*175 _129_
*176 _130_
*177 _131_
*178 _132_
*179 _133_
*180 _134_
*181 _135_
*182 _136_
*183 _137_
*184 _138_
*185 _139_
*186 _140_
*187 _141_
*188 _142_
*189 _143_
*190 _144_
*191 _145_
*192 _146_
*193 _147_
*194 _148_
*195 _149_
*196 _150_
*197 _151_
*198 _152_
*199 _153_
*200 _154_
*201 _155_
*202 _156_
*203 _157_
*204 _158_
*205 _159_
*206 _160_
*207 _161_
*208 _162_
*209 _163_
*210 _164_
*211 _165_
*212 _166_
*213 _167_
*214 _168_
*215 _169_
*216 _170_
*217 _171_
*218 _172_
*219 _173_
*220 _174_
*221 _175_
*222 _176_
*223 _177_
*224 _178_
*225 _179_
*226 _180_
*227 _181_
*228 _182_
*229 _183_
*230 _184_
*231 _185_
*232 _186_
*233 _187_
*234 _188_
*235 _189_
*236 _190_
*237 _191_
*238 _192_
*239 _193_
*240 _194_
*241 _195_
*242 _196_
*243 _197_
*244 _198_
*245 _199_
*246 _200_
*247 _201_
*248 _202_
*249 _203_
*250 _204_
*251 _205_
*252 _206_
*253 _207_
*254 _208_
*255 _209_
*256 _210_
*257 _211_
*258 _212_
*259 _213_
*260 _214_
*261 _215_
*262 _216_
*263 _217_
*264 _218_
*265 _219_
*266 _220_
*267 _221_
*268 _222_
*269 _223_
*270 _224_
*271 _225_
*272 _226_
*273 _227_
*274 _228_
*275 _229_
*276 _230_
*277 _231_
*278 _232_
*279 _233_
*280 _234_
*281 _235_
*282 _236_
*283 _237_
*284 _238_
*285 _239_
*286 _240_
*287 _241_
*288 _242_
*289 _243_
*290 _244_
*291 _245_
*292 _246_
*293 _247_
*294 _248_
*295 _249_
*296 _250_
*297 _251_
*298 _252_
*299 _253_
*300 _254_
*301 _255_
*302 _256_
*303 _257_
*304 _258_
*305 _259_
*306 _260_
*307 _261_
*308 _262_
*309 _263_
*310 _264_
*311 _265_
*312 _266_
*313 _267_
*314 _268_
*315 _269_
*316 _270_
*317 _271_
*318 _272_
*319 _273_
*320 _274_
*321 _275_
*322 _276_
*323 _277_
*324 _278_
*325 _279_
*326 _280_
*327 _281_
*328 _282_
*329 _283_
*330 _284_
*331 _285_
*332 _286_
*333 _287_
*334 _288_
*335 _289_
*336 _290_
*337 _291_
*338 _292_
*339 _293_
*340 _294_
*341 _295_
*342 _296_
*343 _297_
*344 _298_
*345 _299_
*346 _300_
*347 _301_
*348 _302_
*349 _303_
*350 _304_
*351 _305_
*352 _306_
*353 _307_
*354 _308_
*355 _309_
*356 _310_
*357 _311_
*358 _312_
*359 _313_
*360 _314_
*361 _315_
*362 _316_
*363 _317_
*364 _318_
*365 _319_
*366 _320_
*367 _321_
*368 _322_
*369 _323_
*370 _324_
*371 _325_
*372 _326_
*373 _327_
*374 _328_
*375 _329_
*376 _330_
*377 _331_
*378 _332_
*379 _333_
*380 _334_
*381 _335_
*382 _336_
*383 _337_
*384 _338_
*385 _339_
*386 _340_
*387 _341_
*388 _342_
*389 _343_
*390 _344_
*391 _345_
*392 _346_
*393 _347_
*394 _348_
*395 _349_
*396 _350_
*397 _351_
*398 _352_
*399 _353_
*400 _354_
*401 _355_
*402 _356_
*403 _357_
*404 _358_
*405 _359_
*406 _360_
*407 _361_
*408 _362_
*409 _363_
*410 _364_
*411 _365_
*412 _366_
*413 _367_
*414 _368_
*415 _369_
*416 _370_
*417 _371_
*418 _372_
*419 _373_
*420 _374_
*421 _375_
*422 _376_
*423 _377_
*424 _378_
*425 _379_
*426 _380_
*427 _381_
*428 _382_
*429 _383_
*430 _384_
*431 _385_
*432 _386_
*433 _387_
*434 _388_
*435 _389_
*436 _390_
*437 _391_
*438 _392_
*439 _393_
*440 _394_
*441 _395_
*442 _396_
*443 _397_
*444 _398_
*445 _399_
*446 _400_
*447 _401_
*448 _402_
*449 _403_
*450 _404_
*451 _405_
*452 _406_
*453 _407_
*454 _408_
*455 _409_
*456 _410_
*457 _411_
*458 _412_
*459 _413_
*460 _414_
*461 _415_
*462 _416_
*463 _417_
*464 _418_
*465 _419_
*466 _420_
*467 _421_
*468 _422_
*469 _423_
*470 _424_
*471 _425_
*472 _426_
*473 _427_
*474 clknet_0_clk
*475 clknet_3_0__leaf_clk
*476 clknet_3_1__leaf_clk
*477 clknet_3_2__leaf_clk
*478 clknet_3_3__leaf_clk
*479 clknet_3_4__leaf_clk
*480 clknet_3_5__leaf_clk
*481 clknet_3_6__leaf_clk
*482 clknet_3_7__leaf_clk
*483 d_ext\[0\]
*484 d_ext\[1\]
*485 d_ext\[2\]
*486 d_ext\[3\]
*487 d_ext\[4\]
*488 d_ext\[5\]
*489 d_ext\[6\]
*490 d_next\[0\]
*491 d_next\[1\]
*492 d_next\[2\]
*493 d_next\[3\]
*494 d_next\[4\]
*495 d_next\[5\]
*496 d_next\[6\]
*497 net1
*498 net10
*499 net100
*500 net2
*501 net3
*502 net32
*503 net33
*504 net34
*505 net35
*506 net36
*507 net37
*508 net38
*509 net39
*510 net4
*511 net40
*512 net41
*513 net42
*514 net43
*515 net44
*516 net45
*517 net46
*518 net47
*519 net48
*520 net49
*521 net5
*522 net50
*523 net51
*524 net52
*525 net53
*526 net54
*527 net55
*528 net56
*529 net57
*530 net58
*531 net59
*532 net6
*533 net60
*534 net61
*535 net62
*536 net63
*537 net64
*538 net65
*539 net66
*540 net67
*541 net68
*542 net69
*543 net7
*544 net70
*545 net71
*546 net72
*547 net73
*548 net74
*549 net75
*550 net76
*551 net77
*552 net78
*553 net79
*554 net8
*555 net80
*556 net81
*557 net82
*558 net83
*559 net84
*560 net85
*561 net86
*562 net87
*563 net88
*564 net89
*565 net9
*566 net90
*567 net91
*568 net92
*569 net93
*570 net94
*571 net95
*572 net96
*573 net97
*574 net98
*575 net99
*576 pwm_next1
*577 pwm_next2
*578 pwm_next3
*579 pwm_reg1
*580 pwm_reg2
*581 pwm_reg3
*582 q_next\[0\]
*583 q_next\[10\]
*584 q_next\[11\]
*585 q_next\[12\]
*586 q_next\[13\]
*587 q_next\[14\]
*588 q_next\[15\]
*589 q_next\[16\]
*590 q_next\[17\]
*591 q_next\[18\]
*592 q_next\[19\]
*593 q_next\[1\]
*594 q_next\[20\]
*595 q_next\[21\]
*596 q_next\[22\]
*597 q_next\[23\]
*598 q_next\[24\]
*599 q_next\[25\]
*600 q_next\[26\]
*601 q_next\[27\]
*602 q_next\[28\]
*603 q_next\[29\]
*604 q_next\[2\]
*605 q_next\[30\]
*606 q_next\[31\]
*607 q_next\[3\]
*608 q_next\[4\]
*609 q_next\[5\]
*610 q_next\[6\]
*611 q_next\[7\]
*612 q_next\[8\]
*613 q_next\[9\]
*614 q_reg\[0\]
*615 q_reg\[10\]
*616 q_reg\[11\]
*617 q_reg\[12\]
*618 q_reg\[13\]
*619 q_reg\[14\]
*620 q_reg\[15\]
*621 q_reg\[16\]
*622 q_reg\[17\]
*623 q_reg\[18\]
*624 q_reg\[19\]
*625 q_reg\[1\]
*626 q_reg\[20\]
*627 q_reg\[21\]
*628 q_reg\[22\]
*629 q_reg\[23\]
*630 q_reg\[24\]
*631 q_reg\[25\]
*632 q_reg\[26\]
*633 q_reg\[27\]
*634 q_reg\[28\]
*635 q_reg\[29\]
*636 q_reg\[2\]
*637 q_reg\[30\]
*638 q_reg\[31\]
*639 q_reg\[3\]
*640 q_reg\[4\]
*641 q_reg\[5\]
*642 q_reg\[6\]
*643 q_reg\[7\]
*644 q_reg\[8\]
*645 q_reg\[9\]
*646 ANTENNA_1
*647 FILLER_0_0_109
*648 FILLER_0_0_113
*649 FILLER_0_0_125
*650 FILLER_0_0_137
*651 FILLER_0_0_141
*652 FILLER_0_0_15
*653 FILLER_0_0_153
*654 FILLER_0_0_165
*655 FILLER_0_0_169
*656 FILLER_0_0_181
*657 FILLER_0_0_193
*658 FILLER_0_0_197
*659 FILLER_0_0_209
*660 FILLER_0_0_221
*661 FILLER_0_0_225
*662 FILLER_0_0_237
*663 FILLER_0_0_249
*664 FILLER_0_0_253
*665 FILLER_0_0_265
*666 FILLER_0_0_27
*667 FILLER_0_0_277
*668 FILLER_0_0_281
*669 FILLER_0_0_29
*670 FILLER_0_0_293
*671 FILLER_0_0_3
*672 FILLER_0_0_305
*673 FILLER_0_0_309
*674 FILLER_0_0_321
*675 FILLER_0_0_333
*676 FILLER_0_0_41
*677 FILLER_0_0_53
*678 FILLER_0_0_57
*679 FILLER_0_0_69
*680 FILLER_0_0_81
*681 FILLER_0_0_85
*682 FILLER_0_0_97
*683 FILLER_0_10_101
*684 FILLER_0_10_112
*685 FILLER_0_10_141
*686 FILLER_0_10_149
*687 FILLER_0_10_15
*688 FILLER_0_10_155
*689 FILLER_0_10_169
*690 FILLER_0_10_185
*691 FILLER_0_10_197
*692 FILLER_0_10_206
*693 FILLER_0_10_212
*694 FILLER_0_10_224
*695 FILLER_0_10_253
*696 FILLER_0_10_268
*697 FILLER_0_10_27
*698 FILLER_0_10_29
*699 FILLER_0_10_290
*700 FILLER_0_10_298
*701 FILLER_0_10_3
*702 FILLER_0_10_307
*703 FILLER_0_10_317
*704 FILLER_0_10_329
*705 FILLER_0_10_41
*706 FILLER_0_10_53
*707 FILLER_0_10_65
*708 FILLER_0_10_77
*709 FILLER_0_10_83
*710 FILLER_0_10_85
*711 FILLER_0_11_118
*712 FILLER_0_11_122
*713 FILLER_0_11_15
*714 FILLER_0_11_158
*715 FILLER_0_11_166
*716 FILLER_0_11_169
*717 FILLER_0_11_177
*718 FILLER_0_11_195
*719 FILLER_0_11_214
*720 FILLER_0_11_222
*721 FILLER_0_11_225
*722 FILLER_0_11_27
*723 FILLER_0_11_281
*724 FILLER_0_11_286
*725 FILLER_0_11_3
*726 FILLER_0_11_301
*727 FILLER_0_11_315
*728 FILLER_0_11_323
*729 FILLER_0_11_328
*730 FILLER_0_11_334
*731 FILLER_0_11_39
*732 FILLER_0_11_51
*733 FILLER_0_11_55
*734 FILLER_0_11_57
*735 FILLER_0_11_69
*736 FILLER_0_11_75
*737 FILLER_0_12_101
*738 FILLER_0_12_111
*739 FILLER_0_12_123
*740 FILLER_0_12_137
*741 FILLER_0_12_141
*742 FILLER_0_12_149
*743 FILLER_0_12_15
*744 FILLER_0_12_194
*745 FILLER_0_12_218
*746 FILLER_0_12_226
*747 FILLER_0_12_250
*748 FILLER_0_12_253
*749 FILLER_0_12_257
*750 FILLER_0_12_268
*751 FILLER_0_12_27
*752 FILLER_0_12_272
*753 FILLER_0_12_29
*754 FILLER_0_12_3
*755 FILLER_0_12_307
*756 FILLER_0_12_325
*757 FILLER_0_12_41
*758 FILLER_0_12_53
*759 FILLER_0_12_65
*760 FILLER_0_12_73
*761 FILLER_0_12_85
*762 FILLER_0_12_93
*763 FILLER_0_13_110
*764 FILLER_0_13_113
*765 FILLER_0_13_125
*766 FILLER_0_13_133
*767 FILLER_0_13_143
*768 FILLER_0_13_15
*769 FILLER_0_13_188
*770 FILLER_0_13_203
*771 FILLER_0_13_221
*772 FILLER_0_13_235
*773 FILLER_0_13_27
*774 FILLER_0_13_3
*775 FILLER_0_13_332
*776 FILLER_0_13_39
*777 FILLER_0_13_51
*778 FILLER_0_13_55
*779 FILLER_0_13_57
*780 FILLER_0_13_65
*781 FILLER_0_14_100
*782 FILLER_0_14_118
*783 FILLER_0_14_124
*784 FILLER_0_14_138
*785 FILLER_0_14_148
*786 FILLER_0_14_15
*787 FILLER_0_14_166
*788 FILLER_0_14_179
*789 FILLER_0_14_192
*790 FILLER_0_14_197
*791 FILLER_0_14_231
*792 FILLER_0_14_251
*793 FILLER_0_14_253
*794 FILLER_0_14_262
*795 FILLER_0_14_266
*796 FILLER_0_14_27
*797 FILLER_0_14_273
*798 FILLER_0_14_279
*799 FILLER_0_14_29
*800 FILLER_0_14_3
*801 FILLER_0_14_307
*802 FILLER_0_14_309
*803 FILLER_0_14_321
*804 FILLER_0_14_333
*805 FILLER_0_14_41
*806 FILLER_0_14_53
*807 FILLER_0_14_65
*808 FILLER_0_14_77
*809 FILLER_0_14_83
*810 FILLER_0_14_85
*811 FILLER_0_15_104
*812 FILLER_0_15_110
*813 FILLER_0_15_113
*814 FILLER_0_15_142
*815 FILLER_0_15_15
*816 FILLER_0_15_167
*817 FILLER_0_15_175
*818 FILLER_0_15_184
*819 FILLER_0_15_222
*820 FILLER_0_15_225
*821 FILLER_0_15_233
*822 FILLER_0_15_247
*823 FILLER_0_15_259
*824 FILLER_0_15_27
*825 FILLER_0_15_271
*826 FILLER_0_15_279
*827 FILLER_0_15_281
*828 FILLER_0_15_289
*829 FILLER_0_15_3
*830 FILLER_0_15_329
*831 FILLER_0_15_39
*832 FILLER_0_15_51
*833 FILLER_0_15_55
*834 FILLER_0_15_57
*835 FILLER_0_15_69
*836 FILLER_0_16_110
*837 FILLER_0_16_126
*838 FILLER_0_16_137
*839 FILLER_0_16_15
*840 FILLER_0_16_157
*841 FILLER_0_16_171
*842 FILLER_0_16_191
*843 FILLER_0_16_222
*844 FILLER_0_16_241
*845 FILLER_0_16_249
*846 FILLER_0_16_253
*847 FILLER_0_16_265
*848 FILLER_0_16_27
*849 FILLER_0_16_29
*850 FILLER_0_16_292
*851 FILLER_0_16_3
*852 FILLER_0_16_309
*853 FILLER_0_16_331
*854 FILLER_0_16_41
*855 FILLER_0_16_53
*856 FILLER_0_16_65
*857 FILLER_0_16_77
*858 FILLER_0_16_83
*859 FILLER_0_16_85
*860 FILLER_0_17_124
*861 FILLER_0_17_15
*862 FILLER_0_17_151
*863 FILLER_0_17_155
*864 FILLER_0_17_164
*865 FILLER_0_17_188
*866 FILLER_0_17_218
*867 FILLER_0_17_225
*868 FILLER_0_17_237
*869 FILLER_0_17_27
*870 FILLER_0_17_277
*871 FILLER_0_17_3
*872 FILLER_0_17_309
*873 FILLER_0_17_323
*874 FILLER_0_17_39
*875 FILLER_0_17_51
*876 FILLER_0_17_55
*877 FILLER_0_17_57
*878 FILLER_0_17_69
*879 FILLER_0_17_75
*880 FILLER_0_18_102
*881 FILLER_0_18_106
*882 FILLER_0_18_114
*883 FILLER_0_18_15
*884 FILLER_0_18_197
*885 FILLER_0_18_231
*886 FILLER_0_18_27
*887 FILLER_0_18_282
*888 FILLER_0_18_29
*889 FILLER_0_18_295
*890 FILLER_0_18_3
*891 FILLER_0_18_307
*892 FILLER_0_18_309
*893 FILLER_0_18_318
*894 FILLER_0_18_330
*895 FILLER_0_18_334
*896 FILLER_0_18_41
*897 FILLER_0_18_53
*898 FILLER_0_18_65
*899 FILLER_0_18_77
*900 FILLER_0_18_83
*901 FILLER_0_18_85
*902 FILLER_0_18_94
*903 FILLER_0_19_105
*904 FILLER_0_19_111
*905 FILLER_0_19_140
*906 FILLER_0_19_15
*907 FILLER_0_19_152
*908 FILLER_0_19_165
*909 FILLER_0_19_169
*910 FILLER_0_19_181
*911 FILLER_0_19_193
*912 FILLER_0_19_199
*913 FILLER_0_19_214
*914 FILLER_0_19_222
*915 FILLER_0_19_225
*916 FILLER_0_19_233
*917 FILLER_0_19_237
*918 FILLER_0_19_260
*919 FILLER_0_19_27
*920 FILLER_0_19_276
*921 FILLER_0_19_3
*922 FILLER_0_19_325
*923 FILLER_0_19_333
*924 FILLER_0_19_39
*925 FILLER_0_19_51
*926 FILLER_0_19_55
*927 FILLER_0_19_57
*928 FILLER_0_19_69
*929 FILLER_0_19_81
*930 FILLER_0_19_93
*931 FILLER_0_1_105
*932 FILLER_0_1_111
*933 FILLER_0_1_113
*934 FILLER_0_1_125
*935 FILLER_0_1_137
*936 FILLER_0_1_149
*937 FILLER_0_1_15
*938 FILLER_0_1_161
*939 FILLER_0_1_167
*940 FILLER_0_1_169
*941 FILLER_0_1_181
*942 FILLER_0_1_193
*943 FILLER_0_1_205
*944 FILLER_0_1_217
*945 FILLER_0_1_223
*946 FILLER_0_1_225
*947 FILLER_0_1_237
*948 FILLER_0_1_249
*949 FILLER_0_1_261
*950 FILLER_0_1_27
*951 FILLER_0_1_273
*952 FILLER_0_1_279
*953 FILLER_0_1_281
*954 FILLER_0_1_293
*955 FILLER_0_1_3
*956 FILLER_0_1_305
*957 FILLER_0_1_317
*958 FILLER_0_1_329
*959 FILLER_0_1_39
*960 FILLER_0_1_51
*961 FILLER_0_1_55
*962 FILLER_0_1_57
*963 FILLER_0_1_69
*964 FILLER_0_1_81
*965 FILLER_0_1_93
*966 FILLER_0_20_109
*967 FILLER_0_20_121
*968 FILLER_0_20_133
*969 FILLER_0_20_139
*970 FILLER_0_20_141
*971 FILLER_0_20_15
*972 FILLER_0_20_153
*973 FILLER_0_20_161
*974 FILLER_0_20_177
*975 FILLER_0_20_185
*976 FILLER_0_20_193
*977 FILLER_0_20_197
*978 FILLER_0_20_225
*979 FILLER_0_20_237
*980 FILLER_0_20_249
*981 FILLER_0_20_253
*982 FILLER_0_20_27
*983 FILLER_0_20_29
*984 FILLER_0_20_296
*985 FILLER_0_20_3
*986 FILLER_0_20_306
*987 FILLER_0_20_309
*988 FILLER_0_20_334
*989 FILLER_0_20_41
*990 FILLER_0_20_53
*991 FILLER_0_20_65
*992 FILLER_0_20_77
*993 FILLER_0_20_83
*994 FILLER_0_20_85
*995 FILLER_0_20_97
*996 FILLER_0_21_105
*997 FILLER_0_21_111
*998 FILLER_0_21_113
*999 FILLER_0_21_125
*1000 FILLER_0_21_137
*1001 FILLER_0_21_143
*1002 FILLER_0_21_147
*1003 FILLER_0_21_15
*1004 FILLER_0_21_194
*1005 FILLER_0_21_198
*1006 FILLER_0_21_221
*1007 FILLER_0_21_225
*1008 FILLER_0_21_237
*1009 FILLER_0_21_249
*1010 FILLER_0_21_261
*1011 FILLER_0_21_27
*1012 FILLER_0_21_273
*1013 FILLER_0_21_278
*1014 FILLER_0_21_292
*1015 FILLER_0_21_296
*1016 FILLER_0_21_3
*1017 FILLER_0_21_301
*1018 FILLER_0_21_310
*1019 FILLER_0_21_326
*1020 FILLER_0_21_334
*1021 FILLER_0_21_39
*1022 FILLER_0_21_51
*1023 FILLER_0_21_55
*1024 FILLER_0_21_57
*1025 FILLER_0_21_69
*1026 FILLER_0_21_81
*1027 FILLER_0_21_93
*1028 FILLER_0_22_109
*1029 FILLER_0_22_121
*1030 FILLER_0_22_133
*1031 FILLER_0_22_15
*1032 FILLER_0_22_154
*1033 FILLER_0_22_194
*1034 FILLER_0_22_197
*1035 FILLER_0_22_209
*1036 FILLER_0_22_232
*1037 FILLER_0_22_249
*1038 FILLER_0_22_259
*1039 FILLER_0_22_27
*1040 FILLER_0_22_271
*1041 FILLER_0_22_283
*1042 FILLER_0_22_29
*1043 FILLER_0_22_3
*1044 FILLER_0_22_328
*1045 FILLER_0_22_334
*1046 FILLER_0_22_41
*1047 FILLER_0_22_53
*1048 FILLER_0_22_65
*1049 FILLER_0_22_77
*1050 FILLER_0_22_83
*1051 FILLER_0_22_85
*1052 FILLER_0_22_97
*1053 FILLER_0_23_105
*1054 FILLER_0_23_111
*1055 FILLER_0_23_113
*1056 FILLER_0_23_125
*1057 FILLER_0_23_133
*1058 FILLER_0_23_15
*1059 FILLER_0_23_169
*1060 FILLER_0_23_178
*1061 FILLER_0_23_190
*1062 FILLER_0_23_202
*1063 FILLER_0_23_210
*1064 FILLER_0_23_222
*1065 FILLER_0_23_225
*1066 FILLER_0_23_232
*1067 FILLER_0_23_27
*1068 FILLER_0_23_281
*1069 FILLER_0_23_293
*1070 FILLER_0_23_3
*1071 FILLER_0_23_331
*1072 FILLER_0_23_39
*1073 FILLER_0_23_51
*1074 FILLER_0_23_55
*1075 FILLER_0_23_57
*1076 FILLER_0_23_69
*1077 FILLER_0_23_81
*1078 FILLER_0_23_93
*1079 FILLER_0_24_109
*1080 FILLER_0_24_121
*1081 FILLER_0_24_133
*1082 FILLER_0_24_15
*1083 FILLER_0_24_156
*1084 FILLER_0_24_168
*1085 FILLER_0_24_176
*1086 FILLER_0_24_181
*1087 FILLER_0_24_194
*1088 FILLER_0_24_197
*1089 FILLER_0_24_214
*1090 FILLER_0_24_222
*1091 FILLER_0_24_232
*1092 FILLER_0_24_244
*1093 FILLER_0_24_249
*1094 FILLER_0_24_253
*1095 FILLER_0_24_265
*1096 FILLER_0_24_27
*1097 FILLER_0_24_276
*1098 FILLER_0_24_288
*1099 FILLER_0_24_29
*1100 FILLER_0_24_293
*1101 FILLER_0_24_3
*1102 FILLER_0_24_305
*1103 FILLER_0_24_309
*1104 FILLER_0_24_333
*1105 FILLER_0_24_41
*1106 FILLER_0_24_53
*1107 FILLER_0_24_65
*1108 FILLER_0_24_77
*1109 FILLER_0_24_83
*1110 FILLER_0_24_85
*1111 FILLER_0_24_97
*1112 FILLER_0_25_105
*1113 FILLER_0_25_111
*1114 FILLER_0_25_113
*1115 FILLER_0_25_125
*1116 FILLER_0_25_133
*1117 FILLER_0_25_15
*1118 FILLER_0_25_156
*1119 FILLER_0_25_169
*1120 FILLER_0_25_176
*1121 FILLER_0_25_188
*1122 FILLER_0_25_200
*1123 FILLER_0_25_220
*1124 FILLER_0_25_241
*1125 FILLER_0_25_253
*1126 FILLER_0_25_261
*1127 FILLER_0_25_265
*1128 FILLER_0_25_27
*1129 FILLER_0_25_275
*1130 FILLER_0_25_279
*1131 FILLER_0_25_281
*1132 FILLER_0_25_293
*1133 FILLER_0_25_3
*1134 FILLER_0_25_305
*1135 FILLER_0_25_319
*1136 FILLER_0_25_331
*1137 FILLER_0_25_39
*1138 FILLER_0_25_51
*1139 FILLER_0_25_55
*1140 FILLER_0_25_57
*1141 FILLER_0_25_69
*1142 FILLER_0_25_81
*1143 FILLER_0_25_93
*1144 FILLER_0_26_109
*1145 FILLER_0_26_121
*1146 FILLER_0_26_133
*1147 FILLER_0_26_139
*1148 FILLER_0_26_141
*1149 FILLER_0_26_147
*1150 FILLER_0_26_15
*1151 FILLER_0_26_162
*1152 FILLER_0_26_172
*1153 FILLER_0_26_181
*1154 FILLER_0_26_193
*1155 FILLER_0_26_206
*1156 FILLER_0_26_216
*1157 FILLER_0_26_220
*1158 FILLER_0_26_246
*1159 FILLER_0_26_253
*1160 FILLER_0_26_27
*1161 FILLER_0_26_274
*1162 FILLER_0_26_29
*1163 FILLER_0_26_292
*1164 FILLER_0_26_3
*1165 FILLER_0_26_300
*1166 FILLER_0_26_306
*1167 FILLER_0_26_319
*1168 FILLER_0_26_331
*1169 FILLER_0_26_41
*1170 FILLER_0_26_53
*1171 FILLER_0_26_65
*1172 FILLER_0_26_77
*1173 FILLER_0_26_83
*1174 FILLER_0_26_85
*1175 FILLER_0_26_97
*1176 FILLER_0_27_105
*1177 FILLER_0_27_111
*1178 FILLER_0_27_113
*1179 FILLER_0_27_125
*1180 FILLER_0_27_137
*1181 FILLER_0_27_145
*1182 FILLER_0_27_15
*1183 FILLER_0_27_159
*1184 FILLER_0_27_184
*1185 FILLER_0_27_196
*1186 FILLER_0_27_204
*1187 FILLER_0_27_210
*1188 FILLER_0_27_222
*1189 FILLER_0_27_225
*1190 FILLER_0_27_235
*1191 FILLER_0_27_245
*1192 FILLER_0_27_256
*1193 FILLER_0_27_262
*1194 FILLER_0_27_27
*1195 FILLER_0_27_277
*1196 FILLER_0_27_281
*1197 FILLER_0_27_285
*1198 FILLER_0_27_290
*1199 FILLER_0_27_3
*1200 FILLER_0_27_331
*1201 FILLER_0_27_39
*1202 FILLER_0_27_51
*1203 FILLER_0_27_55
*1204 FILLER_0_27_57
*1205 FILLER_0_27_69
*1206 FILLER_0_27_81
*1207 FILLER_0_27_93
*1208 FILLER_0_28_109
*1209 FILLER_0_28_121
*1210 FILLER_0_28_133
*1211 FILLER_0_28_139
*1212 FILLER_0_28_141
*1213 FILLER_0_28_15
*1214 FILLER_0_28_153
*1215 FILLER_0_28_165
*1216 FILLER_0_28_172
*1217 FILLER_0_28_201
*1218 FILLER_0_28_214
*1219 FILLER_0_28_226
*1220 FILLER_0_28_234
*1221 FILLER_0_28_241
*1222 FILLER_0_28_249
*1223 FILLER_0_28_253
*1224 FILLER_0_28_267
*1225 FILLER_0_28_27
*1226 FILLER_0_28_279
*1227 FILLER_0_28_29
*1228 FILLER_0_28_291
*1229 FILLER_0_28_296
*1230 FILLER_0_28_3
*1231 FILLER_0_28_300
*1232 FILLER_0_28_331
*1233 FILLER_0_28_41
*1234 FILLER_0_28_53
*1235 FILLER_0_28_65
*1236 FILLER_0_28_77
*1237 FILLER_0_28_83
*1238 FILLER_0_28_85
*1239 FILLER_0_28_97
*1240 FILLER_0_29_105
*1241 FILLER_0_29_111
*1242 FILLER_0_29_113
*1243 FILLER_0_29_125
*1244 FILLER_0_29_137
*1245 FILLER_0_29_149
*1246 FILLER_0_29_15
*1247 FILLER_0_29_161
*1248 FILLER_0_29_167
*1249 FILLER_0_29_169
*1250 FILLER_0_29_181
*1251 FILLER_0_29_188
*1252 FILLER_0_29_200
*1253 FILLER_0_29_204
*1254 FILLER_0_29_220
*1255 FILLER_0_29_233
*1256 FILLER_0_29_244
*1257 FILLER_0_29_252
*1258 FILLER_0_29_27
*1259 FILLER_0_29_275
*1260 FILLER_0_29_279
*1261 FILLER_0_29_281
*1262 FILLER_0_29_293
*1263 FILLER_0_29_3
*1264 FILLER_0_29_303
*1265 FILLER_0_29_320
*1266 FILLER_0_29_332
*1267 FILLER_0_29_39
*1268 FILLER_0_29_51
*1269 FILLER_0_29_55
*1270 FILLER_0_29_57
*1271 FILLER_0_29_69
*1272 FILLER_0_29_81
*1273 FILLER_0_29_93
*1274 FILLER_0_2_109
*1275 FILLER_0_2_121
*1276 FILLER_0_2_133
*1277 FILLER_0_2_139
*1278 FILLER_0_2_141
*1279 FILLER_0_2_15
*1280 FILLER_0_2_153
*1281 FILLER_0_2_165
*1282 FILLER_0_2_177
*1283 FILLER_0_2_189
*1284 FILLER_0_2_195
*1285 FILLER_0_2_197
*1286 FILLER_0_2_209
*1287 FILLER_0_2_221
*1288 FILLER_0_2_233
*1289 FILLER_0_2_245
*1290 FILLER_0_2_251
*1291 FILLER_0_2_253
*1292 FILLER_0_2_265
*1293 FILLER_0_2_27
*1294 FILLER_0_2_277
*1295 FILLER_0_2_289
*1296 FILLER_0_2_29
*1297 FILLER_0_2_3
*1298 FILLER_0_2_301
*1299 FILLER_0_2_307
*1300 FILLER_0_2_309
*1301 FILLER_0_2_321
*1302 FILLER_0_2_333
*1303 FILLER_0_2_41
*1304 FILLER_0_2_53
*1305 FILLER_0_2_65
*1306 FILLER_0_2_77
*1307 FILLER_0_2_83
*1308 FILLER_0_2_85
*1309 FILLER_0_2_97
*1310 FILLER_0_30_109
*1311 FILLER_0_30_121
*1312 FILLER_0_30_133
*1313 FILLER_0_30_139
*1314 FILLER_0_30_141
*1315 FILLER_0_30_149
*1316 FILLER_0_30_15
*1317 FILLER_0_30_163
*1318 FILLER_0_30_193
*1319 FILLER_0_30_203
*1320 FILLER_0_30_209
*1321 FILLER_0_30_213
*1322 FILLER_0_30_219
*1323 FILLER_0_30_227
*1324 FILLER_0_30_27
*1325 FILLER_0_30_275
*1326 FILLER_0_30_287
*1327 FILLER_0_30_29
*1328 FILLER_0_30_3
*1329 FILLER_0_30_312
*1330 FILLER_0_30_325
*1331 FILLER_0_30_333
*1332 FILLER_0_30_41
*1333 FILLER_0_30_53
*1334 FILLER_0_30_65
*1335 FILLER_0_30_77
*1336 FILLER_0_30_83
*1337 FILLER_0_30_85
*1338 FILLER_0_30_97
*1339 FILLER_0_31_105
*1340 FILLER_0_31_111
*1341 FILLER_0_31_113
*1342 FILLER_0_31_125
*1343 FILLER_0_31_137
*1344 FILLER_0_31_145
*1345 FILLER_0_31_15
*1346 FILLER_0_31_169
*1347 FILLER_0_31_179
*1348 FILLER_0_31_187
*1349 FILLER_0_31_199
*1350 FILLER_0_31_203
*1351 FILLER_0_31_209
*1352 FILLER_0_31_218
*1353 FILLER_0_31_225
*1354 FILLER_0_31_237
*1355 FILLER_0_31_245
*1356 FILLER_0_31_27
*1357 FILLER_0_31_279
*1358 FILLER_0_31_281
*1359 FILLER_0_31_293
*1360 FILLER_0_31_3
*1361 FILLER_0_31_304
*1362 FILLER_0_31_327
*1363 FILLER_0_31_39
*1364 FILLER_0_31_51
*1365 FILLER_0_31_55
*1366 FILLER_0_31_57
*1367 FILLER_0_31_69
*1368 FILLER_0_31_81
*1369 FILLER_0_31_93
*1370 FILLER_0_32_109
*1371 FILLER_0_32_121
*1372 FILLER_0_32_133
*1373 FILLER_0_32_139
*1374 FILLER_0_32_141
*1375 FILLER_0_32_15
*1376 FILLER_0_32_160
*1377 FILLER_0_32_172
*1378 FILLER_0_32_182
*1379 FILLER_0_32_194
*1380 FILLER_0_32_197
*1381 FILLER_0_32_201
*1382 FILLER_0_32_213
*1383 FILLER_0_32_220
*1384 FILLER_0_32_229
*1385 FILLER_0_32_241
*1386 FILLER_0_32_253
*1387 FILLER_0_32_27
*1388 FILLER_0_32_289
*1389 FILLER_0_32_29
*1390 FILLER_0_32_297
*1391 FILLER_0_32_3
*1392 FILLER_0_32_307
*1393 FILLER_0_32_322
*1394 FILLER_0_32_334
*1395 FILLER_0_32_41
*1396 FILLER_0_32_53
*1397 FILLER_0_32_65
*1398 FILLER_0_32_77
*1399 FILLER_0_32_83
*1400 FILLER_0_32_85
*1401 FILLER_0_32_97
*1402 FILLER_0_33_105
*1403 FILLER_0_33_111
*1404 FILLER_0_33_113
*1405 FILLER_0_33_125
*1406 FILLER_0_33_133
*1407 FILLER_0_33_15
*1408 FILLER_0_33_167
*1409 FILLER_0_33_172
*1410 FILLER_0_33_184
*1411 FILLER_0_33_196
*1412 FILLER_0_33_208
*1413 FILLER_0_33_221
*1414 FILLER_0_33_240
*1415 FILLER_0_33_252
*1416 FILLER_0_33_260
*1417 FILLER_0_33_27
*1418 FILLER_0_33_278
*1419 FILLER_0_33_281
*1420 FILLER_0_33_293
*1421 FILLER_0_33_3
*1422 FILLER_0_33_301
*1423 FILLER_0_33_309
*1424 FILLER_0_33_318
*1425 FILLER_0_33_330
*1426 FILLER_0_33_334
*1427 FILLER_0_33_39
*1428 FILLER_0_33_51
*1429 FILLER_0_33_55
*1430 FILLER_0_33_57
*1431 FILLER_0_33_69
*1432 FILLER_0_33_81
*1433 FILLER_0_33_93
*1434 FILLER_0_34_109
*1435 FILLER_0_34_121
*1436 FILLER_0_34_133
*1437 FILLER_0_34_139
*1438 FILLER_0_34_141
*1439 FILLER_0_34_15
*1440 FILLER_0_34_165
*1441 FILLER_0_34_177
*1442 FILLER_0_34_191
*1443 FILLER_0_34_195
*1444 FILLER_0_34_210
*1445 FILLER_0_34_234
*1446 FILLER_0_34_242
*1447 FILLER_0_34_250
*1448 FILLER_0_34_253
*1449 FILLER_0_34_261
*1450 FILLER_0_34_269
*1451 FILLER_0_34_27
*1452 FILLER_0_34_283
*1453 FILLER_0_34_29
*1454 FILLER_0_34_290
*1455 FILLER_0_34_298
*1456 FILLER_0_34_3
*1457 FILLER_0_34_309
*1458 FILLER_0_34_324
*1459 FILLER_0_34_332
*1460 FILLER_0_34_41
*1461 FILLER_0_34_53
*1462 FILLER_0_34_65
*1463 FILLER_0_34_77
*1464 FILLER_0_34_83
*1465 FILLER_0_34_85
*1466 FILLER_0_34_97
*1467 FILLER_0_35_105
*1468 FILLER_0_35_111
*1469 FILLER_0_35_113
*1470 FILLER_0_35_125
*1471 FILLER_0_35_137
*1472 FILLER_0_35_143
*1473 FILLER_0_35_15
*1474 FILLER_0_35_165
*1475 FILLER_0_35_169
*1476 FILLER_0_35_191
*1477 FILLER_0_35_204
*1478 FILLER_0_35_222
*1479 FILLER_0_35_233
*1480 FILLER_0_35_245
*1481 FILLER_0_35_264
*1482 FILLER_0_35_27
*1483 FILLER_0_35_297
*1484 FILLER_0_35_3
*1485 FILLER_0_35_301
*1486 FILLER_0_35_307
*1487 FILLER_0_35_326
*1488 FILLER_0_35_334
*1489 FILLER_0_35_39
*1490 FILLER_0_35_51
*1491 FILLER_0_35_55
*1492 FILLER_0_35_57
*1493 FILLER_0_35_69
*1494 FILLER_0_35_81
*1495 FILLER_0_35_93
*1496 FILLER_0_36_109
*1497 FILLER_0_36_121
*1498 FILLER_0_36_133
*1499 FILLER_0_36_139
*1500 FILLER_0_36_141
*1501 FILLER_0_36_149
*1502 FILLER_0_36_15
*1503 FILLER_0_36_176
*1504 FILLER_0_36_181
*1505 FILLER_0_36_187
*1506 FILLER_0_36_213
*1507 FILLER_0_36_233
*1508 FILLER_0_36_27
*1509 FILLER_0_36_29
*1510 FILLER_0_36_290
*1511 FILLER_0_36_3
*1512 FILLER_0_36_331
*1513 FILLER_0_36_41
*1514 FILLER_0_36_53
*1515 FILLER_0_36_65
*1516 FILLER_0_36_77
*1517 FILLER_0_36_83
*1518 FILLER_0_36_85
*1519 FILLER_0_36_97
*1520 FILLER_0_37_105
*1521 FILLER_0_37_111
*1522 FILLER_0_37_113
*1523 FILLER_0_37_125
*1524 FILLER_0_37_137
*1525 FILLER_0_37_149
*1526 FILLER_0_37_15
*1527 FILLER_0_37_161
*1528 FILLER_0_37_167
*1529 FILLER_0_37_193
*1530 FILLER_0_37_198
*1531 FILLER_0_37_202
*1532 FILLER_0_37_213
*1533 FILLER_0_37_221
*1534 FILLER_0_37_225
*1535 FILLER_0_37_254
*1536 FILLER_0_37_261
*1537 FILLER_0_37_27
*1538 FILLER_0_37_273
*1539 FILLER_0_37_279
*1540 FILLER_0_37_281
*1541 FILLER_0_37_3
*1542 FILLER_0_37_327
*1543 FILLER_0_37_39
*1544 FILLER_0_37_51
*1545 FILLER_0_37_55
*1546 FILLER_0_37_57
*1547 FILLER_0_37_69
*1548 FILLER_0_37_81
*1549 FILLER_0_37_93
*1550 FILLER_0_38_10
*1551 FILLER_0_38_102
*1552 FILLER_0_38_106
*1553 FILLER_0_38_110
*1554 FILLER_0_38_113
*1555 FILLER_0_38_118
*1556 FILLER_0_38_122
*1557 FILLER_0_38_126
*1558 FILLER_0_38_130
*1559 FILLER_0_38_134
*1560 FILLER_0_38_14
*1561 FILLER_0_38_144
*1562 FILLER_0_38_150
*1563 FILLER_0_38_154
*1564 FILLER_0_38_158
*1565 FILLER_0_38_162
*1566 FILLER_0_38_166
*1567 FILLER_0_38_169
*1568 FILLER_0_38_18
*1569 FILLER_0_38_182
*1570 FILLER_0_38_194
*1571 FILLER_0_38_197
*1572 FILLER_0_38_209
*1573 FILLER_0_38_22
*1574 FILLER_0_38_221
*1575 FILLER_0_38_225
*1576 FILLER_0_38_237
*1577 FILLER_0_38_246
*1578 FILLER_0_38_253
*1579 FILLER_0_38_265
*1580 FILLER_0_38_270
*1581 FILLER_0_38_274
*1582 FILLER_0_38_278
*1583 FILLER_0_38_281
*1584 FILLER_0_38_292
*1585 FILLER_0_38_301
*1586 FILLER_0_38_312
*1587 FILLER_0_38_32
*1588 FILLER_0_38_329
*1589 FILLER_0_38_38
*1590 FILLER_0_38_42
*1591 FILLER_0_38_46
*1592 FILLER_0_38_50
*1593 FILLER_0_38_54
*1594 FILLER_0_38_57
*1595 FILLER_0_38_6
*1596 FILLER_0_38_62
*1597 FILLER_0_38_66
*1598 FILLER_0_38_70
*1599 FILLER_0_38_74
*1600 FILLER_0_38_78
*1601 FILLER_0_38_88
*1602 FILLER_0_38_94
*1603 FILLER_0_38_98
*1604 FILLER_0_3_105
*1605 FILLER_0_3_111
*1606 FILLER_0_3_113
*1607 FILLER_0_3_125
*1608 FILLER_0_3_137
*1609 FILLER_0_3_149
*1610 FILLER_0_3_15
*1611 FILLER_0_3_161
*1612 FILLER_0_3_167
*1613 FILLER_0_3_169
*1614 FILLER_0_3_181
*1615 FILLER_0_3_193
*1616 FILLER_0_3_205
*1617 FILLER_0_3_217
*1618 FILLER_0_3_223
*1619 FILLER_0_3_225
*1620 FILLER_0_3_237
*1621 FILLER_0_3_249
*1622 FILLER_0_3_261
*1623 FILLER_0_3_27
*1624 FILLER_0_3_273
*1625 FILLER_0_3_279
*1626 FILLER_0_3_281
*1627 FILLER_0_3_293
*1628 FILLER_0_3_3
*1629 FILLER_0_3_305
*1630 FILLER_0_3_317
*1631 FILLER_0_3_329
*1632 FILLER_0_3_39
*1633 FILLER_0_3_51
*1634 FILLER_0_3_55
*1635 FILLER_0_3_57
*1636 FILLER_0_3_69
*1637 FILLER_0_3_81
*1638 FILLER_0_3_93
*1639 FILLER_0_4_109
*1640 FILLER_0_4_121
*1641 FILLER_0_4_133
*1642 FILLER_0_4_139
*1643 FILLER_0_4_141
*1644 FILLER_0_4_15
*1645 FILLER_0_4_153
*1646 FILLER_0_4_161
*1647 FILLER_0_4_166
*1648 FILLER_0_4_181
*1649 FILLER_0_4_193
*1650 FILLER_0_4_197
*1651 FILLER_0_4_219
*1652 FILLER_0_4_231
*1653 FILLER_0_4_243
*1654 FILLER_0_4_251
*1655 FILLER_0_4_253
*1656 FILLER_0_4_265
*1657 FILLER_0_4_27
*1658 FILLER_0_4_277
*1659 FILLER_0_4_289
*1660 FILLER_0_4_29
*1661 FILLER_0_4_3
*1662 FILLER_0_4_301
*1663 FILLER_0_4_307
*1664 FILLER_0_4_309
*1665 FILLER_0_4_321
*1666 FILLER_0_4_333
*1667 FILLER_0_4_41
*1668 FILLER_0_4_53
*1669 FILLER_0_4_65
*1670 FILLER_0_4_77
*1671 FILLER_0_4_83
*1672 FILLER_0_4_85
*1673 FILLER_0_4_97
*1674 FILLER_0_5_102
*1675 FILLER_0_5_113
*1676 FILLER_0_5_130
*1677 FILLER_0_5_142
*1678 FILLER_0_5_15
*1679 FILLER_0_5_150
*1680 FILLER_0_5_189
*1681 FILLER_0_5_223
*1682 FILLER_0_5_233
*1683 FILLER_0_5_245
*1684 FILLER_0_5_257
*1685 FILLER_0_5_269
*1686 FILLER_0_5_27
*1687 FILLER_0_5_277
*1688 FILLER_0_5_281