*SPEF "ieee 1481-1999"
*DESIGN "tt_um_btflv_subleq"
*DATE "18:44:41 Saturday June 01, 2024"
*VENDOR "The OpenROAD Project"
*PROGRAM "OpenROAD"
*VERSION "da0053d7b0014ab9c87ea148875ff6c2a0f9b658"
*DESIGN_FLOW "NAME_SCOPE LOCAL" "PIN_CAP NONE"
*DIVIDER /
*DELIMITER :
*BUS_DELIMITER []
*T_UNIT 1 NS
*C_UNIT 1 PF
*R_UNIT 1 OHM
*L_UNIT 1 HENRY

*NAME_MAP
*3 clk
*4 ena
*5 rst_n
*6 ui_in[0]
*7 ui_in[1]
*8 ui_in[2]
*9 ui_in[3]
*10 ui_in[4]
*11 ui_in[5]
*12 ui_in[6]
*13 ui_in[7]
*14 uio_in[0]
*15 uio_in[1]
*16 uio_in[2]
*17 uio_in[3]
*18 uio_in[4]
*19 uio_in[5]
*20 uio_in[6]
*21 uio_in[7]
*22 net43
*23 net44
*24 net45
*25 net46
*26 net47
*27 net48
*28 net49
*29 net50
*30 uio_out[0]
*31 uio_out[1]
*32 uio_out[2]
*33 uio_out[3]
*34 uio_out[4]
*35 uio_out[5]
*36 uio_out[6]
*37 uio_out[7]
*38 uo_out[0]
*39 uo_out[1]
*40 uo_out[2]
*41 uo_out[3]
*42 uo_out[4]
*43 net51
*44 net52
*45 net53
*46 CreditsTX\.bit_counter\[0\]
*47 CreditsTX\.bit_counter\[1\]
*48 CreditsTX\.bit_counter\[2\]
*49 CreditsTX\.bit_counter\[3\]
*50 CreditsTX\.char_counter\[0\]
*51 CreditsTX\.char_counter\[1\]
*52 CreditsTX\.char_counter\[2\]
*53 CreditsTX\.char_counter\[3\]
*54 CreditsTX\.clk_counter\[0\]
*55 CreditsTX\.clk_counter\[10\]
*56 CreditsTX\.clk_counter\[11\]
*57 CreditsTX\.clk_counter\[12\]
*58 CreditsTX\.clk_counter\[13\]
*59 CreditsTX\.clk_counter\[14\]
*60 CreditsTX\.clk_counter\[15\]
*61 CreditsTX\.clk_counter\[16\]
*62 CreditsTX\.clk_counter\[17\]
*63 CreditsTX\.clk_counter\[18\]
*64 CreditsTX\.clk_counter\[19\]
*65 CreditsTX\.clk_counter\[1\]
*66 CreditsTX\.clk_counter\[20\]
*67 CreditsTX\.clk_counter\[21\]
*68 CreditsTX\.clk_counter\[22\]
*69 CreditsTX\.clk_counter\[23\]
*70 CreditsTX\.clk_counter\[24\]
*71 CreditsTX\.clk_counter\[25\]
*72 CreditsTX\.clk_counter\[26\]
*73 CreditsTX\.clk_counter\[27\]
*74 CreditsTX\.clk_counter\[28\]
*75 CreditsTX\.clk_counter\[29\]
*76 CreditsTX\.clk_counter\[2\]
*77 CreditsTX\.clk_counter\[30\]
*78 CreditsTX\.clk_counter\[31\]
*79 CreditsTX\.clk_counter\[3\]
*80 CreditsTX\.clk_counter\[4\]
*81 CreditsTX\.clk_counter\[5\]
*82 CreditsTX\.clk_counter\[6\]
*83 CreditsTX\.clk_counter\[7\]
*84 CreditsTX\.clk_counter\[8\]
*85 CreditsTX\.clk_counter\[9\]
*86 CreditsTX\.idle_counter\[0\]
*87 CreditsTX\.idle_counter\[10\]
*88 CreditsTX\.idle_counter\[11\]
*89 CreditsTX\.idle_counter\[12\]
*90 CreditsTX\.idle_counter\[13\]
*91 CreditsTX\.idle_counter\[14\]
*92 CreditsTX\.idle_counter\[15\]
*93 CreditsTX\.idle_counter\[16\]
*94 CreditsTX\.idle_counter\[17\]
*95 CreditsTX\.idle_counter\[18\]
*96 CreditsTX\.idle_counter\[19\]
*97 CreditsTX\.idle_counter\[1\]
*98 CreditsTX\.idle_counter\[20\]
*99 CreditsTX\.idle_counter\[21\]
*100 CreditsTX\.idle_counter\[22\]
*101 CreditsTX\.idle_counter\[23\]
*102 CreditsTX\.idle_counter\[24\]
*103 CreditsTX\.idle_counter\[25\]
*104 CreditsTX\.idle_counter\[26\]
*105 CreditsTX\.idle_counter\[27\]
*106 CreditsTX\.idle_counter\[28\]
*107 CreditsTX\.idle_counter\[29\]
*108 CreditsTX\.idle_counter\[2\]
*109 CreditsTX\.idle_counter\[30\]
*110 CreditsTX\.idle_counter\[31\]
*111 CreditsTX\.idle_counter\[3\]
*112 CreditsTX\.idle_counter\[4\]
*113 CreditsTX\.idle_counter\[5\]
*114 CreditsTX\.idle_counter\[6\]
*115 CreditsTX\.idle_counter\[7\]
*116 CreditsTX\.idle_counter\[8\]
*117 CreditsTX\.idle_counter\[9\]
*118 CreditsTX\.state\[0\]
*119 CreditsTX\.state\[1\]
*120 CreditsTX\.tx
*121 CreditsTX\.tx_shift_reg\[0\]
*122 CreditsTX\.tx_shift_reg\[1\]
*123 CreditsTX\.tx_shift_reg\[2\]
*124 CreditsTX\.tx_shift_reg\[3\]
*125 CreditsTX\.tx_shift_reg\[4\]
*126 CreditsTX\.tx_shift_reg\[5\]
*127 CreditsTX\.tx_shift_reg\[6\]
*128 CreditsTX\.tx_shift_reg\[7\]
*129 _0000_
*130 _0001_
*131 _0002_
*132 _0003_
*133 _0004_
*134 _0005_
*135 _0006_
*136 _0007_
*137 _0008_
*138 _0009_
*139 _0010_
*140 _0011_
*141 _0012_
*142 _0013_
*143 _0014_
*144 _0015_
*145 _0016_
*146 _0017_
*147 _0018_
*148 _0019_
*149 _0020_
*150 _0021_
*151 _0022_
*152 _0023_
*153 _0024_
*154 _0025_
*155 _0026_
*156 _0027_
*157 _0028_
*158 _0029_
*159 _0030_
*160 _0031_
*161 _0032_
*162 _0033_
*163 _0034_
*164 _0035_
*165 _0036_
*166 _0037_
*167 _0038_
*168 _0039_
*169 _0040_
*170 _0041_
*171 _0042_
*172 _0043_
*173 _0044_
*174 _0045_
*175 _0046_
*176 _0047_
*177 _0048_
*178 _0049_
*179 _0050_
*180 _0051_
*181 _0052_
*182 _0053_
*183 _0054_
*184 _0055_
*185 _0056_
*186 _0057_
*187 _0058_
*188 _0059_
*189 _0060_
*190 _0061_
*191 _0062_
*192 _0063_
*193 _0064_
*194 _0065_
*195 _0066_
*196 _0067_
*197 _0068_
*198 _0069_
*199 _0070_
*200 _0071_
*201 _0072_
*202 _0073_
*203 _0074_
*204 _0075_
*205 _0076_
*206 _0077_
*207 _0078_
*208 _0079_
*209 _0080_
*210 _0081_
*211 _0082_
*212 _0083_
*213 _0084_
*214 _0085_
*215 _0086_
*216 _0087_
*217 _0088_
*218 _0089_
*219 _0090_
*220 _0091_
*221 _0092_
*222 _0093_
*223 _0094_
*224 _0095_
*225 _0096_
*226 _0097_
*227 _0098_
*228 _0099_
*229 _0100_
*230 _0101_
*231 _0102_
*232 _0103_
*233 _0104_
*234 _0105_
*235 _0106_
*236 _0107_
*237 _0108_
*238 _0109_
*239 _0110_
*240 _0111_
*241 _0112_
*242 _0113_
*243 _0114_
*244 _0115_
*245 _0116_
*246 _0117_
*247 _0118_
*248 _0119_
*249 _0120_
*250 _0121_
*251 _0122_
*252 _0123_
*253 _0124_
*254 _0125_
*255 _0126_
*256 _0127_
*257 _0128_
*258 _0129_
*259 _0130_
*260 _0131_
*261 _0132_
*262 _0133_
*263 _0134_
*264 _0135_
*265 _0136_
*266 _0137_
*267 _0138_
*268 _0139_
*269 _0140_
*270 _0141_
*271 _0142_
*272 _0143_
*273 _0144_
*274 _0145_
*275 _0146_
*276 _0147_
*277 _0148_
*278 _0149_
*279 _0150_
*280 _0151_
*281 _0152_
*282 _0153_
*283 _0154_
*284 _0155_
*285 _0156_
*286 _0157_
*287 _0158_
*288 _0159_
*289 _0160_
*290 _0161_
*291 _0162_
*292 _0163_
*293 _0164_
*294 _0165_
*295 _0166_
*296 _0167_
*297 _0168_
*298 _0169_
*299 _0170_
*300 _0171_
*301 _0172_
*302 _0173_
*303 _0174_
*304 _0175_
*305 _0176_
*306 _0177_
*307 _0178_
*308 _0179_
*309 _0180_
*310 _0181_
*311 _0182_
*312 _0183_
*313 _0184_
*314 _0185_
*315 _0186_
*316 _0187_
*317 _0188_
*318 _0189_
*319 _0190_
*320 _0191_
*321 _0192_
*322 _0193_
*323 _0194_
*324 _0195_
*325 _0196_
*326 _0197_
*327 _0198_
*328 _0199_
*329 _0200_
*330 _0201_
*331 _0202_
*332 _0203_
*333 _0204_
*334 _0205_
*335 _0206_
*336 _0207_
*337 _0208_
*338 _0209_
*339 _0210_
*340 _0211_
*341 _0212_
*342 _0213_
*343 _0214_
*344 _0215_
*345 _0216_
*346 _0217_
*347 _0218_
*348 _0219_
*349 _0220_
*350 _0221_
*351 _0222_
*352 _0223_
*353 _0224_
*354 _0225_
*355 _0226_
*356 _0227_
*357 _0228_
*358 _0229_
*359 _0230_
*360 _0231_
*361 _0232_
*362 _0233_
*363 _0234_
*364 _0235_
*365 _0236_
*366 _0237_
*367 _0238_
*368 _0239_
*369 _0240_
*370 _0241_
*371 _0242_
*372 _0243_
*373 _0244_
*374 _0245_
*375 _0246_
*376 _0247_
*377 _0248_
*378 _0249_
*379 _0250_
*380 _0251_
*381 _0252_
*382 _0253_
*383 _0254_
*384 _0255_
*385 _0256_
*386 _0257_
*387 _0258_
*388 _0259_
*389 _0260_
*390 _0261_
*391 _0262_
*392 _0263_
*393 _0264_
*394 _0265_
*395 _0266_
*396 _0267_
*397 _0268_
*398 _0269_
*399 _0270_
*400 _0271_
*401 _0272_
*402 _0273_
*403 _0274_
*404 _0275_
*405 _0276_
*406 _0277_
*407 _0278_
*408 _0279_
*409 _0280_
*410 _0281_
*411 _0282_
*412 _0283_
*413 _0284_
*414 _0285_
*415 _0286_
*416 _0287_
*417 _0288_
*418 _0289_
*419 _0290_
*420 _0291_
*421 _0292_
*422 _0293_
*423 _0294_
*424 _0295_
*425 _0296_
*426 _0297_
*427 _0298_
*428 _0299_
*429 _0300_
*430 _0301_
*431 _0302_
*432 _0303_
*433 _0304_
*434 _0305_
*435 _0306_
*436 _0307_
*437 _0308_
*438 _0309_
*439 _0310_
*440 _0311_
*441 _0312_
*442 _0313_
*443 _0314_
*444 _0315_
*445 _0316_
*446 _0317_
*447 _0318_
*448 _0319_
*449 _0320_
*450 _0321_
*451 _0322_
*452 _0323_
*453 _0324_
*454 _0325_
*455 _0326_
*456 _0327_
*457 _0328_
*458 _0329_
*459 _0330_
*460 _0331_
*461 _0332_
*462 _0333_
*463 _0334_
*464 _0335_
*465 _0336_
*466 _0337_
*467 _0338_
*468 _0339_
*469 _0340_
*470 _0341_
*471 _0342_
*472 _0343_
*473 _0344_
*474 _0345_
*475 _0346_
*476 _0347_
*477 _0348_
*478 _0349_
*479 _0350_
*480 _0351_
*481 _0352_
*482 _0353_
*483 _0354_
*484 _0355_
*485 _0356_
*486 _0357_
*487 _0358_
*488 _0359_
*489 _0360_
*490 _0361_
*491 _0362_
*492 _0363_
*493 _0364_
*494 _0365_
*495 _0366_
*496 _0367_
*497 _0368_
*498 _0369_
*499 _0370_
*500 _0371_
*501 _0372_
*502 _0373_
*503 _0374_
*504 _0375_
*505 _0376_
*506 _0377_
*507 _0378_
*508 _0379_
*509 _0380_
*510 _0381_
*511 _0382_
*512 _0383_
*513 _0384_
*514 _0385_
*515 _0386_
*516 _0387_
*517 _0388_
*518 _0389_
*519 _0390_
*520 _0391_
*521 _0392_
*522 _0393_
*523 _0394_
*524 _0395_
*525 _0396_
*526 _0397_
*527 _0398_
*528 _0399_
*529 _0400_
*530 _0401_
*531 _0402_
*532 _0403_
*533 _0404_
*534 _0405_
*535 _0406_
*536 _0407_
*537 _0408_
*538 _0409_
*539 _0410_
*540 _0411_
*541 _0412_
*542 _0413_
*543 _0414_
*544 _0415_
*545 _0416_
*546 _0417_
*547 _0418_
*548 _0419_
*549 _0420_
*550 _0421_
*551 _0422_
*552 _0423_
*553 _0424_
*554 _0425_
*555 _0426_
*556 _0427_
*557 _0428_
*558 _0429_
*559 _0430_
*560 _0431_
*561 _0432_
*562 _0433_
*563 _0434_
*564 _0435_
*565 _0436_
*566 _0437_
*567 _0438_
*568 _0439_
*569 _0440_
*570 _0441_
*571 _0442_
*572 _0443_
*573 _0444_
*574 _0445_
*575 _0446_
*576 _0447_
*577 _0448_
*578 _0449_
*579 _0450_
*580 _0451_
*581 _0452_
*582 _0453_
*583 _0454_
*584 _0455_
*585 _0456_
*586 _0457_
*587 _0458_
*588 _0459_
*589 _0460_
*590 _0461_
*591 _0462_
*592 _0463_
*593 _0464_
*594 _0465_
*595 _0466_
*596 _0467_
*597 _0468_
*598 _0469_
*599 _0470_
*600 _0471_
*601 _0472_
*602 _0473_
*603 _0474_
*604 _0475_
*605 _0476_
*606 _0477_
*607 _0478_
*608 _0479_
*609 _0480_
*610 _0481_
*611 _0482_
*612 _0483_
*613 _0484_
*614 _0485_
*615 _0486_
*616 _0487_
*617 _0488_
*618 _0489_
*619 _0490_
*620 _0491_
*621 _0492_
*622 _0493_
*623 _0494_
*624 _0495_
*625 _0496_
*626 _0497_
*627 _0498_
*628 _0499_
*629 _0500_
*630 _0501_
*631 _0502_
*632 _0503_
*633 _0504_
*634 _0505_
*635 _0506_
*636 _0507_
*637 _0508_
*638 _0509_
*639 _0510_
*640 _0511_
*641 _0512_
*642 _0513_
*643 _0514_
*644 _0515_
*645 _0516_
*646 _0517_
*647 _0518_
*648 _0519_
*649 _0520_
*650 _0521_
*651 _0522_
*652 _0523_
*653 _0524_
*654 _0525_
*655 _0526_
*656 _0527_
*657 _0528_
*658 _0529_
*659 _0530_
*660 _0531_
*661 _0532_
*662 _0533_
*663 _0534_
*664 _0535_
*665 _0536_
*666 _0537_
*667 _0538_
*668 _0539_
*669 _0540_
*670 _0541_
*671 _0542_
*672 _0543_
*673 _0544_
*674 _0545_
*675 _0546_
*676 _0547_
*677 _0548_
*678 _0549_
*679 _0550_
*680 _0551_
*681 _0552_
*682 _0553_
*683 _0554_
*684 _0555_
*685 _0556_
*686 _0557_
*687 _0558_
*688 _0559_
*689 _0560_
*690 _0561_
*691 _0562_
*692 _0563_
*693 _0564_
*694 _0565_
*695 _0566_
*696 _0567_
*697 _0568_
*698 _0569_
*699 _0570_
*700 _0571_
*701 _0572_
*702 _0573_
*703 _0574_
*704 _0575_
*705 _0576_
*706 _0577_
*707 _0578_
*708 _0579_
*709 _0580_
*710 _0581_
*711 _0582_
*712 _0583_
*713 _0584_
*714 _0585_
*715 _0586_
*716 _0587_
*717 _0588_
*718 _0589_
*719 _0590_
*720 _0591_
*721 _0592_
*722 _0593_
*723 _0594_
*724 _0595_
*725 _0596_
*726 _0597_
*727 _0598_
*728 _0599_
*729 _0600_
*730 _0601_
*731 _0602_
*732 _0603_
*733 _0604_
*734 _0605_
*735 _0606_
*736 _0607_
*737 _0608_
*738 _0609_
*739 _0610_
*740 _0611_
*741 _0612_
*742 _0613_
*743 _0614_
*744 _0615_
*745 _0616_
*746 _0617_
*747 _0618_
*748 _0619_
*749 _0620_
*750 _0621_
*751 _0622_
*752 _0623_
*753 _0624_
*754 _0625_
*755 _0626_
*756 _0627_
*757 _0628_
*758 _0629_
*759 _0630_
*760 _0631_
*761 _0632_
*762 _0633_
*763 _0634_
*764 _0635_
*765 _0636_
*766 _0637_
*767 _0638_
*768 _0639_
*769 _0640_
*770 _0641_
*771 _0642_
*772 _0643_
*773 _0644_
*774 _0645_
*775 _0646_
*776 _0647_
*777 _0648_
*778 _0649_
*779 _0650_
*780 _0651_
*781 _0652_
*782 _0653_
*783 _0654_
*784 _0655_
*785 _0656_
*786 _0657_
*787 _0658_
*788 _0659_
*789 _0660_
*790 _0661_
*791 _0662_
*792 _0663_
*793 _0664_
*794 _0665_
*795 _0666_
*796 _0667_
*797 _0668_
*798 _0669_
*799 _0670_
*800 _0671_
*801 _0672_
*802 _0673_
*803 _0674_
*804 _0675_
*805 _0676_
*806 _0677_
*807 _0678_
*808 _0679_
*809 _0680_
*810 _0681_
*811 _0682_
*812 _0683_
*813 _0684_
*814 _0685_
*815 _0686_
*816 _0687_
*817 _0688_
*818 _0689_
*819 _0690_
*820 _0691_
*821 _0692_
*822 _0693_
*823 _0694_
*824 _0695_
*825 _0696_
*826 _0697_
*827 _0698_
*828 _0699_
*829 _0700_
*830 _0701_
*831 _0702_
*832 _0703_
*833 _0704_
*834 _0705_
*835 _0706_
*836 _0707_
*837 _0708_
*838 _0709_
*839 _0710_
*840 _0711_
*841 _0712_
*842 _0713_
*843 _0714_
*844 _0715_
*845 _0716_
*846 _0717_
*847 _0718_
*848 _0719_
*849 _0720_
*850 _0721_
*851 _0722_
*852 _0723_
*853 _0724_
*854 _0725_
*855 _0726_
*856 _0727_
*857 _0728_
*858 _0729_
*859 _0730_
*860 _0731_
*861 _0732_
*862 _0733_
*863 _0734_
*864 _0735_
*865 _0736_
*866 _0737_
*867 _0738_
*868 _0739_
*869 _0740_
*870 _0741_
*871 _0742_
*872 _0743_
*873 _0744_
*874 _0745_
*875 _0746_
*876 _0747_
*877 _0748_
*878 _0749_
*879 _0750_
*880 _0751_
*881 _0752_
*882 _0753_
*883 _0754_
*884 _0755_
*885 _0756_
*886 _0757_
*887 _0758_
*888 _0759_
*889 _0760_
*890 _0761_
*891 _0762_
*892 _0763_
*893 _0764_
*894 _0765_
*895 _0766_
*896 _0767_
*897 _0768_
*898 _0769_
*899 _0770_
*900 _0771_
*901 _0772_
*902 _0773_
*903 _0774_
*904 _0775_
*905 _0776_
*906 _0777_
*907 _0778_
*908 _0779_
*909 _0780_
*910 _0781_
*911 _0782_
*912 _0783_
*913 _0784_
*914 _0785_
*915 _0786_
*916 _0787_
*917 _0788_
*918 _0789_
*919 _0790_
*920 _0791_
*921 _0792_
*922 _0793_
*923 _0794_
*924 _0795_
*925 _0796_
*926 _0797_
*927 _0798_
*928 _0799_
*929 _0800_
*930 _0801_
*931 _0802_
*932 _0803_
*933 _0804_
*934 _0805_
*935 _0806_
*936 _0807_
*937 _0808_
*938 _0809_
*939 _0810_
*940 _0811_
*941 _0812_
*942 _0813_
*943 _0814_
*944 _0815_
*945 _0816_
*946 _0817_
*947 _0818_
*948 _0819_
*949 _0820_
*950 _0821_
*951 _0822_
*952 _0823_
*953 _0824_
*954 _0825_
*955 _0826_
*956 _0827_
*957 _0828_
*958 _0829_
*959 _0830_
*960 _0831_
*961 _0832_
*962 _0833_
*963 _0834_
*964 _0835_
*965 _0836_
*966 _0837_
*967 _0838_
*968 _0839_
*969 _0840_
*970 _0841_
*971 _0842_
*972 _0843_
*973 _0844_
*974 _0845_
*975 _0846_
*976 _0847_
*977 _0848_
*978 _0849_
*979 _0850_
*980 _0851_
*981 _0852_
*982 _0853_
*983 _0854_
*984 _0855_
*985 _0856_
*986 _0857_
*987 _0858_
*988 _0859_
*989 _0860_
*990 _0861_
*991 _0862_
*992 _0863_
*993 _0864_
*994 _0865_
*995 _0866_
*996 _0867_
*997 _0868_
*998 _0869_
*999 _0870_
*1000 _0871_
*1001 _0872_
*1002 _0873_
*1003 _0874_
*1004 _0875_
*1005 _0876_
*1006 _0877_
*1007 _0878_
*1008 _0879_
*1009 _0880_
*1010 _0881_
*1011 _0882_
*1012 _0883_
*1013 _0884_
*1014 _0885_
*1015 _0886_
*1016 _0887_
*1017 _0888_
*1018 _0889_
*1019 _0890_
*1020 _0891_
*1021 _0892_
*1022 _0893_
*1023 _0894_
*1024 _0895_
*1025 _0896_
*1026 _0897_
*1027 _0898_
*1028 _0899_
*1029 _0900_
*1030 _0901_
*1031 _0902_
*1032 _0903_
*1033 _0904_
*1034 _0905_
*1035 _0906_
*1036 _0907_
*1037 _0908_
*1038 _0909_
*1039 _0910_
*1040 _0911_
*1041 _0912_
*1042 _0913_
*1043 _0914_
*1044 _0915_
*1045 _0916_
*1046 _0917_
*1047 _0918_
*1048 _0919_
*1049 _0920_
*1050 _0921_
*1051 _0922_
*1052 _0923_
*1053 _0924_
*1054 _0925_
*1055 _0926_
*1056 _0927_
*1057 _0928_
*1058 _0929_
*1059 _0930_
*1060 _0931_
*1061 _0932_
*1062 _0933_
*1063 _0934_
*1064 _0935_
*1065 _0936_
*1066 _0937_
*1067 _0938_
*1068 _0939_
*1069 _0940_
*1070 _0941_
*1071 _0942_
*1072 _0943_
*1073 _0944_
*1074 _0945_
*1075 _0946_
*1076 _0947_
*1077 _0948_
*1078 _0949_
*1079 _0950_
*1080 _0951_
*1081 _0952_
*1082 _0953_
*1083 _0954_
*1084 _0955_
*1085 _0956_
*1086 _0957_
*1087 _0958_
*1088 _0959_
*1089 _0960_
*1090 _0961_
*1091 _0962_
*1092 _0963_
*1093 _0964_
*1094 _0965_
*1095 _0966_
*1096 _0967_
*1097 _0968_
*1098 _0969_
*1099 _0970_
*1100 _0971_
*1101 _0972_
*1102 _0973_
*1103 _0974_
*1104 _0975_
*1105 _0976_
*1106 _0977_
*1107 _0978_
*1108 _0979_
*1109 _0980_
*1110 _0981_
*1111 _0982_
*1112 _0983_
*1113 _0984_
*1114 _0985_
*1115 _0986_
*1116 _0987_
*1117 _0988_
*1118 _0989_
*1119 _0990_
*1120 _0991_
*1121 _0992_
*1122 _0993_
*1123 _0994_
*1124 _0995_
*1125 _0996_
*1126 _0997_
*1127 _0998_
*1128 _0999_
*1129 _1000_
*1130 _1001_
*1131 _1002_
*1132 _1003_
*1133 _1004_
*1134 _1005_
*1135 _1006_
*1136 _1007_
*1137 _1008_
*1138 _1009_
*1139 _1010_
*1140 _1011_
*1141 _1012_
*1142 _1013_
*1143 _1014_
*1144 _1015_
*1145 _1016_
*1146 _1017_
*1147 _1018_
*1148 _1019_
*1149 _1020_
*1150 _1021_
*1151 _1022_
*1152 _1023_
*1153 _1024_
*1154 _1025_
*1155 _1026_
*1156 _1027_
*1157 _1028_
*1158 _1029_
*1159 _1030_
*1160 _1031_
*1161 _1032_
*1162 _1033_
*1163 _1034_
*1164 _1035_
*1165 _1036_
*1166 _1037_
*1167 _1038_
*1168 _1039_
*1169 _1040_
*1170 _1041_
*1171 _1042_
*1172 _1043_
*1173 _1044_
*1174 _1045_
*1175 _1046_
*1176 _1047_
*1177 _1048_
*1178 _1049_
*1179 _1050_
*1180 _1051_
*1181 _1052_
*1182 _1053_
*1183 _1054_
*1184 _1055_
*1185 _1056_
*1186 _1057_
*1187 _1058_
*1188 _1059_
*1189 _1060_
*1190 _1061_
*1191 _1062_
*1192 _1063_
*1193 _1064_
*1194 _1065_
*1195 _1066_
*1196 _1067_
*1197 _1068_
*1198 _1069_
*1199 _1070_
*1200 _1071_
*1201 _1072_
*1202 _1073_
*1203 _1074_
*1204 _1075_
*1205 _1076_
*1206 _1077_
*1207 _1078_
*1208 _1079_
*1209 _1080_
*1210 _1081_
*1211 _1082_
*1212 _1083_
*1213 _1084_
*1214 _1085_
*1215 _1086_
*1216 _1087_
*1217 _1088_
*1218 _1089_
*1219 _1090_
*1220 _1091_
*1221 _1092_
*1222 _1093_
*1223 _1094_
*1224 _1095_
*1225 _1096_
*1226 _1097_
*1227 _1098_
*1228 _1099_
*1229 _1100_
*1230 _1101_
*1231 _1102_
*1232 _1103_
*1233 _1104_
*1234 _1105_
*1235 _1106_
*1236 _1107_
*1237 _1108_
*1238 _1109_
*1239 _1110_
*1240 _1111_
*1241 _1112_
*1242 char_output_flag
*1243 clknet_0_clk
*1244 clknet_2_0__leaf_clk
*1245 clknet_2_1__leaf_clk
*1246 clknet_2_2__leaf_clk
*1247 clknet_2_3__leaf_clk
*1248 clknet_leaf_0_clk
*1249 clknet_leaf_10_clk
*1250 clknet_leaf_11_clk
*1251 clknet_leaf_12_clk
*1252 clknet_leaf_13_clk
*1253 clknet_leaf_14_clk
*1254 clknet_leaf_15_clk
*1255 clknet_leaf_16_clk
*1256 clknet_leaf_17_clk
*1257 clknet_leaf_18_clk
*1258 clknet_leaf_19_clk
*1259 clknet_leaf_1_clk
*1260 clknet_leaf_20_clk
*1261 clknet_leaf_21_clk
*1262 clknet_leaf_22_clk
*1263 clknet_leaf_23_clk
*1264 clknet_leaf_24_clk
*1265 clknet_leaf_25_clk
*1266 clknet_leaf_26_clk
*1267 clknet_leaf_27_clk
*1268 clknet_leaf_28_clk
*1269 clknet_leaf_2_clk
*1270 clknet_leaf_3_clk
*1271 clknet_leaf_4_clk
*1272 clknet_leaf_5_clk
*1273 clknet_leaf_6_clk
*1274 clknet_leaf_7_clk
*1275 clknet_leaf_8_clk
*1276 clknet_leaf_9_clk
*1277 data_a\[10\]
*1278 data_a\[11\]
*1279 data_a\[12\]
*1280 data_a\[13\]
*1281 data_a\[14\]
*1282 data_a\[15\]
*1283 data_a\[8\]
*1284 data_a\[9\]
*1285 data_b\[0\]
*1286 data_b\[10\]
*1287 data_b\[11\]
*1288 data_b\[12\]
*1289 data_b\[13\]
*1290 data_b\[14\]
*1291 data_b\[15\]
*1292 data_b\[1\]
*1293 data_b\[2\]
*1294 data_b\[3\]
*1295 data_b\[4\]
*1296 data_b\[5\]
*1297 data_b\[6\]
*1298 data_b\[7\]
*1299 data_b\[8\]
*1300 data_b\[9\]
*1301 halted_reg
*1302 ir_a\[0\]
*1303 ir_a\[10\]
*1304 ir_a\[11\]
*1305 ir_a\[12\]
*1306 ir_a\[13\]
*1307 ir_a\[14\]
*1308 ir_a\[1\]
*1309 ir_a\[2\]
*1310 ir_a\[3\]
*1311 ir_a\[4\]
*1312 ir_a\[5\]
*1313 ir_a\[6\]
*1314 ir_a\[7\]
*1315 ir_a\[8\]
*1316 ir_a\[9\]
*1317 ir_b\[0\]
*1318 ir_b\[10\]
*1319 ir_b\[11\]
*1320 ir_b\[12\]
*1321 ir_b\[13\]
*1322 ir_b\[14\]
*1323 ir_b\[15\]
*1324 ir_b\[1\]
*1325 ir_b\[2\]
*1326 ir_b\[3\]
*1327 ir_b\[4\]
*1328 ir_b\[5\]
*1329 ir_b\[6\]
*1330 ir_b\[7\]
*1331 ir_b\[8\]
*1332 ir_b\[9\]
*1333 ir_c\[0\]
*1334 ir_c\[10\]
*1335 ir_c\[11\]
*1336 ir_c\[12\]
*1337 ir_c\[13\]
*1338 ir_c\[14\]
*1339 ir_c\[15\]
*1340 ir_c\[1\]
*1341 ir_c\[2\]
*1342 ir_c\[3\]
*1343 ir_c\[4\]
*1344 ir_c\[5\]
*1345 ir_c\[6\]
*1346 ir_c\[7\]
*1347 ir_c\[8\]
*1348 ir_c\[9\]
*1349 net1
*1350 net10
*1351 net100
*1352 net101
*1353 net102
*1354 net103
*1355 net104
*1356 net105
*1357 net106
*1358 net107
*1359 net108
*1360 net109
*1361 net11
*1362 net110
*1363 net111
*1364 net112
*1365 net113
*1366 net114
*1367 net115
*1368 net116
*1369 net117
*1370 net118
*1371 net119
*1372 net12
*1373 net120
*1374 net121
*1375 net122
*1376 net123
*1377 net124
*1378 net125
*1379 net126
*1380 net127
*1381 net128
*1382 net129
*1383 net13
*1384 net130
*1385 net131
*1386 net132
*1387 net133
*1388 net134
*1389 net135
*1390 net136
*1391 net137
*1392 net138
*1393 net139
*1394 net14
*1395 net140
*1396 net141
*1397 net142
*1398 net143
*1399 net144
*1400 net145
*1401 net146
*1402 net147
*1403 net148
*1404 net149
*1405 net15
*1406 net150
*1407 net151
*1408 net152
*1409 net153
*1410 net154
*1411 net155
*1412 net156
*1413 net157
*1414 net158
*1415 net159
*1416 net16
*1417 net160
*1418 net161
*1419 net162
*1420 net163
*1421 net164
*1422 net165
*1423 net166
*1424 net167
*1425 net168
*1426 net169
*1427 net17
*1428 net170
*1429 net171
*1430 net172
*1431 net173
*1432 net174
*1433 net175
*1434 net176
*1435 net177
*1436 net178
*1437 net179
*1438 net18
*1439 net180
*1440 net181
*1441 net182
*1442 net183
*1443 net184
*1444 net185
*1445 net186
*1446 net187
*1447 net188
*1448 net189
*1449 net19
*1450 net190
*1451 net191
*1452 net192
*1453 net193
*1454 net194
*1455 net195
*1456 net196
*1457 net197
*1458 net198
*1459 net199
*1460 net2
*1461 net20
*1462 net200
*1463 net201
*1464 net202
*1465 net203
*1466 net204
*1467 net205
*1468 net206
*1469 net207
*1470 net208
*1471 net209
*1472 net21
*1473 net210
*1474 net211
*1475 net212
*1476 net213
*1477 net214
*1478 net215
*1479 net216
*1480 net217
*1481 net218
*1482 net219
*1483 net22
*1484 net220
*1485 net221
*1486 net222
*1487 net223
*1488 net224
*1489 net225
*1490 net226
*1491 net227
*1492 net228
*1493 net229
*1494 net23
*1495 net230
*1496 net231
*1497 net232
*1498 net233
*1499 net234
*1500 net235
*1501 net236
*1502 net237
*1503 net238
*1504 net239
*1505 net24
*1506 net240
*1507 net241
*1508 net242
*1509 net243
*1510 net244
*1511 net245
*1512 net246
*1513 net247
*1514 net248
*1515 net249
*1516 net25
*1517 net250
*1518 net251
*1519 net252
*1520 net253
*1521 net254
*1522 net255
*1523 net256
*1524 net257
*1525 net258
*1526 net259
*1527 net26
*1528 net260
*1529 net261
*1530 net262
*1531 net263
*1532 net264
*1533 net265
*1534 net266
*1535 net267
*1536 net268
*1537 net269
*1538 net27
*1539 net270
*1540 net271
*1541 net272
*1542 net273
*1543 net274
*1544 net275
*1545 net276
*1546 net277
*1547 net278
*1548 net279
*1549 net28
*1550 net280
*1551 net281
*1552 net282
*1553 net283
*1554 net284
*1555 net285
*1556 net286
*1557 net29
*1558 net3
*1559 net30
*1560 net31
*1561 net32
*1562 net33
*1563 net34
*1564 net35
*1565 net36
*1566 net37
*1567 net38
*1568 net39
*1569 net4
*1570 net40
*1571 net41
*1572 net42
*1573 net5
*1574 net54
*1575 net55
*1576 net56
*1577 net57
*1578 net58
*1579 net59
*1580 net6
*1581 net60
*1582 net61
*1583 net62
*1584 net63
*1585 net64
*1586 net65
*1587 net66
*1588 net67
*1589 net68
*1590 net69
*1591 net7
*1592 net70
*1593 net71
*1594 net72
*1595 net73
*1596 net74
*1597 net75
*1598 net76
*1599 net77
*1600 net78
*1601 net79
*1602 net8
*1603 net80
*1604 net81
*1605 net82
*1606 net83
*1607 net84
*1608 net85
*1609 net86
*1610 net87
*1611 net88
*1612 net89
*1613 net9
*1614 net90
*1615 net91
*1616 net92
*1617 net93
*1618 net94
*1619 net95
*1620 net96
*1621 net97
*1622 net98
*1623 net99
*1624 next_state\[0\]
*1625 next_state\[1\]
*1626 next_state\[2\]
*1627 next_state\[3\]
*1628 next_state\[4\]
*1629 pc\[0\]
*1630 pc\[10\]
*1631 pc\[11\]
*1632 pc\[12\]
*1633 pc\[13\]
*1634 pc\[14\]
*1635 pc\[1\]
*1636 pc\[2\]
*1637 pc\[3\]
*1638 pc\[4\]
*1639 pc\[5\]
*1640 pc\[6\]
*1641 pc\[7\]
*1642 pc\[8\]
*1643 pc\[9\]
*1644 ram\.addr\[0\]
*1645 ram\.addr\[10\]
*1646 ram\.addr\[11\]
*1647 ram\.addr\[12\]
*1648 ram\.addr\[13\]
*1649 ram\.addr\[14\]
*1650 ram\.addr\[1\]
*1651 ram\.addr\[2\]
*1652 ram\.addr\[3\]
*1653 ram\.addr\[4\]
*1654 ram\.addr\[5\]
*1655 ram\.addr\[6\]
*1656 ram\.addr\[7\]
*1657 ram\.addr\[8\]
*1658 ram\.addr\[9\]
*1659 ram\.bit_counter\[0\]
*1660 ram\.bit_counter\[1\]
*1661 ram\.bit_counter\[2\]
*1662 ram\.bit_counter\[3\]
*1663 ram\.bit_counter\[4\]
*1664 ram\.data_in\[0\]
*1665 ram\.data_in\[10\]
*1666 ram\.data_in\[11\]
*1667 ram\.data_in\[12\]
*1668 ram\.data_in\[13\]
*1669 ram\.data_in\[14\]
*1670 ram\.data_in\[15\]
*1671 ram\.data_in\[1\]
*1672 ram\.data_in\[2\]
*1673 ram\.data_in\[3\]
*1674 ram\.data_in\[4\]
*1675 ram\.data_in\[5\]
*1676 ram\.data_in\[6\]
*1677 ram\.data_in\[7\]
*1678 ram\.data_in\[8\]
*1679 ram\.data_in\[9\]
*1680 ram\.data_out\[0\]
*1681 ram\.data_out\[10\]
*1682 ram\.data_out\[11\]
*1683 ram\.data_out\[12\]
*1684 ram\.data_out\[13\]
*1685 ram\.data_out\[14\]
*1686 ram\.data_out\[15\]
*1687 ram\.data_out\[1\]
*1688 ram\.data_out\[2\]
*1689 ram\.data_out\[3\]
*1690 ram\.data_out\[4\]
*1691 ram\.data_out\[5\]
*1692 ram\.data_out\[6\]
*1693 ram\.data_out\[7\]
*1694 ram\.data_out\[8\]
*1695 ram\.data_out\[9\]
*1696 ram\.done
*1697 ram\.hbyte
*1698 ram\.spi_cs
*1699 ram\.spi_mosi
*1700 ram\.spi_sck
*1701 ram\.start
*1702 ram\.state\[0\]
*1703 ram\.state\[10\]
*1704 ram\.state\[11\]
*1705 ram\.state\[12\]
*1706 ram\.state\[13\]
*1707 ram\.state\[14\]
*1708 ram\.state\[15\]
*1709 ram\.state\[16\]
*1710 ram\.state\[1\]
*1711 ram\.state\[2\]
*1712 ram\.state\[3\]
*1713 ram\.state\[4\]
*1714 ram\.state\[5\]
*1715 ram\.state\[6\]
*1716 ram\.state\[7\]
*1717 ram\.state\[8\]
*1718 ram\.state\[9\]
*1719 ram\.temp_data\[0\]
*1720 ram\.temp_data\[1\]
*1721 ram\.temp_data\[2\]
*1722 ram\.temp_data\[3\]
*1723 ram\.temp_data\[4\]
*1724 ram\.temp_data\[5\]
*1725 ram\.temp_data\[6\]
*1726 ram\.temp_data\[7\]
*1727 ram\.we
*1728 state\[0\]
*1729 state\[1\]
*1730 state\[2\]
*1731 state\[3\]
*1732 state\[4\]
*1733 uart_tx\.baud_counter\[0\]
*1734 uart_tx\.baud_counter\[10\]
*1735 uart_tx\.baud_counter\[11\]
*1736 uart_tx\.baud_counter\[12\]
*1737 uart_tx\.baud_counter\[13\]
*1738 uart_tx\.baud_counter\[14\]
*1739 uart_tx\.baud_counter\[15\]
*1740 uart_tx\.baud_counter\[1\]
*1741 uart_tx\.baud_counter\[2\]
*1742 uart_tx\.baud_counter\[3\]
*1743 uart_tx\.baud_counter\[4\]
*1744 uart_tx\.baud_counter\[5\]
*1745 uart_tx\.baud_counter\[6\]
*1746 uart_tx\.baud_counter\[7\]
*1747 uart_tx\.baud_counter\[8\]
*1748 uart_tx\.baud_counter\[9\]
*1749 uart_tx\.bit_counter\[0\]
*1750 uart_tx\.bit_counter\[1\]
*1751 uart_tx\.bit_counter\[2\]
*1752 uart_tx\.bit_counter\[3\]
*1753 uart_tx\.shift_reg\[0\]
*1754 uart_tx\.shift_reg\[1\]
*1755 uart_tx\.shift_reg\[2\]
*1756 uart_tx\.shift_reg\[3\]
*1757 uart_tx\.shift_reg\[4\]
*1758 uart_tx\.shift_reg\[5\]
*1759 uart_tx\.shift_reg\[6\]
*1760 uart_tx\.shift_reg\[7\]
*1761 uart_tx\.transmitting
*1762 uart_tx\.tx
*1763 uart_tx\.tx_busy
*1764 uart_tx\.tx_data\[0\]
*1765 uart_tx\.tx_data\[1\]
*1766 uart_tx\.tx_data\[2\]
*1767 uart_tx\.tx_data\[3\]
*1768 uart_tx\.tx_data\[4\]
*1769 uart_tx\.tx_data\[5\]
*1770 uart_tx\.tx_data\[6\]
*1771 uart_tx\.tx_data\[7\]
*1772 uart_tx\.tx_start
*1773 FILLER_0_0_109
*1774 FILLER_0_0_113
*1775 FILLER_0_0_125
*1776 FILLER_0_0_137
*1777 FILLER_0_0_141
*1778 FILLER_0_0_15
*1779 FILLER_0_0_153
*1780 FILLER_0_0_165
*1781 FILLER_0_0_169
*1782 FILLER_0_0_181
*1783 FILLER_0_0_193
*1784 FILLER_0_0_197
*1785 FILLER_0_0_209
*1786 FILLER_0_0_221
*1787 FILLER_0_0_225
*1788 FILLER_0_0_237
*1789 FILLER_0_0_249
*1790 FILLER_0_0_253
*1791 FILLER_0_0_265
*1792 FILLER_0_0_27
*1793 FILLER_0_0_277
*1794 FILLER_0_0_281
*1795 FILLER_0_0_29
*1796 FILLER_0_0_293
*1797 FILLER_0_0_3
*1798 FILLER_0_0_305
*1799 FILLER_0_0_309
*1800 FILLER_0_0_321
*1801 FILLER_0_0_333
*1802 FILLER_0_0_41
*1803 FILLER_0_0_53
*1804 FILLER_0_0_57
*1805 FILLER_0_0_69
*1806 FILLER_0_0_81
*1807 FILLER_0_0_85
*1808 FILLER_0_0_97
*1809 FILLER_0_10_106
*1810 FILLER_0_10_118
*1811 FILLER_0_10_133
*1812 FILLER_0_10_139
*1813 FILLER_0_10_149
*1814 FILLER_0_10_15
*1815 FILLER_0_10_179
*1816 FILLER_0_10_191
*1817 FILLER_0_10_195
*1818 FILLER_0_10_197
*1819 FILLER_0_10_209
*1820 FILLER_0_10_251
*1821 FILLER_0_10_261
*1822 FILLER_0_10_27
*1823 FILLER_0_10_275
*1824 FILLER_0_10_279
*1825 FILLER_0_10_29
*1826 FILLER_0_10_3
*1827 FILLER_0_10_309
*1828 FILLER_0_10_321
*1829 FILLER_0_10_333
*1830 FILLER_0_10_41
*1831 FILLER_0_10_65
*1832 FILLER_0_10_81
*1833 FILLER_0_10_85
*1834 FILLER_0_10_94
*1835 FILLER_0_11_100
*1836 FILLER_0_11_113
*1837 FILLER_0_11_15
*1838 FILLER_0_11_157
*1839 FILLER_0_11_176
*1840 FILLER_0_11_213
*1841 FILLER_0_11_223
*1842 FILLER_0_11_228
*1843 FILLER_0_11_232
*1844 FILLER_0_11_244
*1845 FILLER_0_11_27
*1846 FILLER_0_11_278
*1847 FILLER_0_11_292
*1848 FILLER_0_11_3
*1849 FILLER_0_11_304
*1850 FILLER_0_11_316
*1851 FILLER_0_11_328
*1852 FILLER_0_11_334
*1853 FILLER_0_11_35
*1854 FILLER_0_11_57
*1855 FILLER_0_11_68
*1856 FILLER_0_11_76
*1857 FILLER_0_11_88
*1858 FILLER_0_12_114
*1859 FILLER_0_12_136
*1860 FILLER_0_12_141
*1861 FILLER_0_12_15
*1862 FILLER_0_12_152
*1863 FILLER_0_12_159
*1864 FILLER_0_12_171
*1865 FILLER_0_12_183
*1866 FILLER_0_12_187
*1867 FILLER_0_12_191
*1868 FILLER_0_12_195
*1869 FILLER_0_12_217
*1870 FILLER_0_12_229
*1871 FILLER_0_12_241
*1872 FILLER_0_12_249
*1873 FILLER_0_12_27
*1874 FILLER_0_12_273
*1875 FILLER_0_12_285
*1876 FILLER_0_12_29
*1877 FILLER_0_12_297
*1878 FILLER_0_12_3
*1879 FILLER_0_12_305
*1880 FILLER_0_12_309
*1881 FILLER_0_12_321
*1882 FILLER_0_12_333
*1883 FILLER_0_12_41
*1884 FILLER_0_12_70
*1885 FILLER_0_12_78
*1886 FILLER_0_12_93
*1887 FILLER_0_13_113
*1888 FILLER_0_13_121
*1889 FILLER_0_13_125
*1890 FILLER_0_13_136
*1891 FILLER_0_13_15
*1892 FILLER_0_13_151
*1893 FILLER_0_13_163
*1894 FILLER_0_13_167
*1895 FILLER_0_13_180
*1896 FILLER_0_13_192
*1897 FILLER_0_13_204
*1898 FILLER_0_13_209
*1899 FILLER_0_13_217
*1900 FILLER_0_13_223
*1901 FILLER_0_13_225
*1902 FILLER_0_13_247
*1903 FILLER_0_13_262
*1904 FILLER_0_13_27
*1905 FILLER_0_13_274
*1906 FILLER_0_13_279
*1907 FILLER_0_13_297
*1908 FILLER_0_13_3
*1909 FILLER_0_13_309
*1910 FILLER_0_13_321
*1911 FILLER_0_13_333
*1912 FILLER_0_13_39
*1913 FILLER_0_13_64
*1914 FILLER_0_14_108
*1915 FILLER_0_14_120
*1916 FILLER_0_14_132
*1917 FILLER_0_14_149
*1918 FILLER_0_14_15
*1919 FILLER_0_14_157
*1920 FILLER_0_14_168
*1921 FILLER_0_14_192
*1922 FILLER_0_14_197
*1923 FILLER_0_14_23
*1924 FILLER_0_14_244
*1925 FILLER_0_14_253
*1926 FILLER_0_14_260
*1927 FILLER_0_14_27
*1928 FILLER_0_14_272
*1929 FILLER_0_14_29
*1930 FILLER_0_14_3
*1931 FILLER_0_14_302
*1932 FILLER_0_14_309
*1933 FILLER_0_14_321
*1934 FILLER_0_14_333
*1935 FILLER_0_14_37
*1936 FILLER_0_14_78
*1937 FILLER_0_15_109
*1938 FILLER_0_15_113
*1939 FILLER_0_15_138