*SPEF "ieee 1481-1999"
*DESIGN "tt_um_8bitadder"
*DATE "19:09:19 Saturday June 01, 2024"
*VENDOR "The OpenROAD Project"
*PROGRAM "OpenROAD"
*VERSION "da0053d7b0014ab9c87ea148875ff6c2a0f9b658"
*DESIGN_FLOW "NAME_SCOPE LOCAL" "PIN_CAP NONE"
*DIVIDER /
*DELIMITER :
*BUS_DELIMITER []
*T_UNIT 1 NS
*C_UNIT 1 PF
*R_UNIT 1 OHM
*L_UNIT 1 HENRY

*NAME_MAP
*3 clk
*4 ena
*5 rst_n
*6 ui_in[0]
*7 ui_in[1]
*8 ui_in[2]
*9 ui_in[3]
*10 ui_in[4]
*11 ui_in[5]
*12 ui_in[6]
*13 ui_in[7]
*14 uio_in[0]
*15 uio_in[1]
*16 uio_in[2]
*17 uio_in[3]
*18 uio_in[4]
*19 uio_in[5]
*20 uio_in[6]
*21 uio_in[7]
*22 net17
*23 net18
*24 net19
*25 net20
*26 net21
*27 net22
*28 net23
*29 net24
*30 net25
*31 net26
*32 net27
*33 net28
*34 net29
*35 net30
*36 net31
*37 net32
*38 uo_out[0]
*39 uo_out[1]
*40 uo_out[2]
*41 uo_out[3]
*42 uo_out[4]
*43 uo_out[5]
*44 uo_out[6]
*45 uo_out[7]
*46 _00_
*47 _01_
*48 _02_
*49 _03_
*50 _04_
*51 _05_
*52 _06_
*53 _07_
*54 _08_
*55 _09_
*56 _10_
*57 _11_
*58 _12_
*59 _13_
*60 _14_
*61 _15_
*62 _16_
*63 _17_
*64 _18_
*65 _19_
*66 _20_
*67 _21_
*68 _22_
*69 _23_
*70 _24_
*71 _25_
*72 _26_
*73 adder\.fa0\.h0\.s
*74 adder\.fa1\.h1\.s
*75 adder\.fa2\.h1\.s
*76 adder\.fa3\.h1\.s
*77 adder\.fa4\.h1\.s
*78 adder\.fa5\.h1\.s
*79 adder\.fa6\.h1\.s
*80 adder\.fa7\.h1\.s
*81 net1
*82 net10
*83 net11
*84 net12
*85 net13
*86 net14
*87 net15
*88 net16
*89 net2
*90 net3
*91 net4
*92 net5
*93 net6
*94 net7
*95 net8
*96 net9
*97 FILLER_0_0_109
*98 FILLER_0_0_113
*99 FILLER_0_0_125
*100 FILLER_0_0_137
*101 FILLER_0_0_141
*102 FILLER_0_0_15
*103 FILLER_0_0_153
*104 FILLER_0_0_165
*105 FILLER_0_0_169
*106 FILLER_0_0_181
*107 FILLER_0_0_193
*108 FILLER_0_0_197
*109 FILLER_0_0_209
*110 FILLER_0_0_221
*111 FILLER_0_0_225
*112 FILLER_0_0_237
*113 FILLER_0_0_249
*114 FILLER_0_0_253
*115 FILLER_0_0_265
*116 FILLER_0_0_27
*117 FILLER_0_0_277
*118 FILLER_0_0_281
*119 FILLER_0_0_29
*120 FILLER_0_0_293
*121 FILLER_0_0_3
*122 FILLER_0_0_305
*123 FILLER_0_0_309
*124 FILLER_0_0_321
*125 FILLER_0_0_333
*126 FILLER_0_0_41
*127 FILLER_0_0_53
*128 FILLER_0_0_57
*129 FILLER_0_0_69
*130 FILLER_0_0_81
*131 FILLER_0_0_85
*132 FILLER_0_0_97
*133 FILLER_0_10_109
*134 FILLER_0_10_121
*135 FILLER_0_10_133
*136 FILLER_0_10_139
*137 FILLER_0_10_141
*138 FILLER_0_10_15
*139 FILLER_0_10_153
*140 FILLER_0_10_165
*141 FILLER_0_10_177
*142 FILLER_0_10_189
*143 FILLER_0_10_195
*144 FILLER_0_10_197
*145 FILLER_0_10_209
*146 FILLER_0_10_221
*147 FILLER_0_10_233
*148 FILLER_0_10_245
*149 FILLER_0_10_251
*150 FILLER_0_10_253
*151 FILLER_0_10_265
*152 FILLER_0_10_27
*153 FILLER_0_10_277
*154 FILLER_0_10_289
*155 FILLER_0_10_29
*156 FILLER_0_10_3
*157 FILLER_0_10_301
*158 FILLER_0_10_307
*159 FILLER_0_10_309
*160 FILLER_0_10_321
*161 FILLER_0_10_333
*162 FILLER_0_10_41
*163 FILLER_0_10_53
*164 FILLER_0_10_65
*165 FILLER_0_10_77
*166 FILLER_0_10_83
*167 FILLER_0_10_85
*168 FILLER_0_10_97
*169 FILLER_0_11_105
*170 FILLER_0_11_111
*171 FILLER_0_11_113
*172 FILLER_0_11_125
*173 FILLER_0_11_137
*174 FILLER_0_11_149
*175 FILLER_0_11_15
*176 FILLER_0_11_161
*177 FILLER_0_11_167
*178 FILLER_0_11_169
*179 FILLER_0_11_181
*180 FILLER_0_11_193
*181 FILLER_0_11_205
*182 FILLER_0_11_217
*183 FILLER_0_11_223
*184 FILLER_0_11_225
*185 FILLER_0_11_237
*186 FILLER_0_11_249
*187 FILLER_0_11_261
*188 FILLER_0_11_27
*189 FILLER_0_11_273
*190 FILLER_0_11_279
*191 FILLER_0_11_281
*192 FILLER_0_11_293
*193 FILLER_0_11_3
*194 FILLER_0_11_305
*195 FILLER_0_11_317
*196 FILLER_0_11_329
*197 FILLER_0_11_39
*198 FILLER_0_11_51
*199 FILLER_0_11_55
*200 FILLER_0_11_57
*201 FILLER_0_11_69
*202 FILLER_0_11_81
*203 FILLER_0_11_93
*204 FILLER_0_12_109
*205 FILLER_0_12_121
*206 FILLER_0_12_133
*207 FILLER_0_12_139
*208 FILLER_0_12_141
*209 FILLER_0_12_15
*210 FILLER_0_12_153
*211 FILLER_0_12_165
*212 FILLER_0_12_177
*213 FILLER_0_12_189
*214 FILLER_0_12_195
*215 FILLER_0_12_197
*216 FILLER_0_12_209
*217 FILLER_0_12_221
*218 FILLER_0_12_233
*219 FILLER_0_12_245
*220 FILLER_0_12_251
*221 FILLER_0_12_253
*222 FILLER_0_12_265
*223 FILLER_0_12_27
*224 FILLER_0_12_277
*225 FILLER_0_12_289
*226 FILLER_0_12_29
*227 FILLER_0_12_3
*228 FILLER_0_12_301
*229 FILLER_0_12_307
*230 FILLER_0_12_309
*231 FILLER_0_12_321
*232 FILLER_0_12_333
*233 FILLER_0_12_41
*234 FILLER_0_12_53
*235 FILLER_0_12_65
*236 FILLER_0_12_77
*237 FILLER_0_12_83
*238 FILLER_0_12_85
*239 FILLER_0_12_97
*240 FILLER_0_13_105
*241 FILLER_0_13_111
*242 FILLER_0_13_113
*243 FILLER_0_13_125
*244 FILLER_0_13_137
*245 FILLER_0_13_149
*246 FILLER_0_13_15
*247 FILLER_0_13_161
*248 FILLER_0_13_167
*249 FILLER_0_13_169
*250 FILLER_0_13_181
*251 FILLER_0_13_193
*252 FILLER_0_13_205
*253 FILLER_0_13_217
*254 FILLER_0_13_223
*255 FILLER_0_13_225
*256 FILLER_0_13_237
*257 FILLER_0_13_249
*258 FILLER_0_13_261
*259 FILLER_0_13_27
*260 FILLER_0_13_273
*261 FILLER_0_13_279
*262 FILLER_0_13_281
*263 FILLER_0_13_293
*264 FILLER_0_13_3
*265 FILLER_0_13_305
*266 FILLER_0_13_317
*267 FILLER_0_13_329
*268 FILLER_0_13_39
*269 FILLER_0_13_51
*270 FILLER_0_13_55
*271 FILLER_0_13_57
*272 FILLER_0_13_69
*273 FILLER_0_13_81
*274 FILLER_0_13_93
*275 FILLER_0_14_109
*276 FILLER_0_14_121
*277 FILLER_0_14_133
*278 FILLER_0_14_139
*279 FILLER_0_14_141
*280 FILLER_0_14_15
*281 FILLER_0_14_153
*282 FILLER_0_14_165
*283 FILLER_0_14_177
*284 FILLER_0_14_189
*285 FILLER_0_14_195
*286 FILLER_0_14_197
*287 FILLER_0_14_209
*288 FILLER_0_14_221
*289 FILLER_0_14_233
*290 FILLER_0_14_245
*291 FILLER_0_14_251
*292 FILLER_0_14_253
*293 FILLER_0_14_265
*294 FILLER_0_14_27
*295 FILLER_0_14_277
*296 FILLER_0_14_289
*297 FILLER_0_14_29
*298 FILLER_0_14_3
*299 FILLER_0_14_301
*300 FILLER_0_14_307
*301 FILLER_0_14_309
*302 FILLER_0_14_321
*303 FILLER_0_14_333
*304 FILLER_0_14_41
*305 FILLER_0_14_53
*306 FILLER_0_14_65
*307 FILLER_0_14_77
*308 FILLER_0_14_83
*309 FILLER_0_14_85
*310 FILLER_0_14_97
*311 FILLER_0_15_105
*312 FILLER_0_15_111
*313 FILLER_0_15_113
*314 FILLER_0_15_125
*315 FILLER_0_15_137
*316 FILLER_0_15_149
*317 FILLER_0_15_15
*318 FILLER_0_15_161
*319 FILLER_0_15_167
*320 FILLER_0_15_169
*321 FILLER_0_15_181
*322 FILLER_0_15_193
*323 FILLER_0_15_205
*324 FILLER_0_15_217
*325 FILLER_0_15_223
*326 FILLER_0_15_225
*327 FILLER_0_15_237
*328 FILLER_0_15_249
*329 FILLER_0_15_261
*330 FILLER_0_15_27
*331 FILLER_0_15_273
*332 FILLER_0_15_279
*333 FILLER_0_15_281
*334 FILLER_0_15_293
*335 FILLER_0_15_3
*336 FILLER_0_15_305
*337 FILLER_0_15_317
*338 FILLER_0_15_329
*339 FILLER_0_15_39
*340 FILLER_0_15_51
*341 FILLER_0_15_55
*342 FILLER_0_15_57
*343 FILLER_0_15_69
*344 FILLER_0_15_81
*345 FILLER_0_15_93
*346 FILLER_0_16_109
*347 FILLER_0_16_121
*348 FILLER_0_16_133
*349 FILLER_0_16_139
*350 FILLER_0_16_141
*351 FILLER_0_16_15
*352 FILLER_0_16_153
*353 FILLER_0_16_165
*354 FILLER_0_16_177
*355 FILLER_0_16_189
*356 FILLER_0_16_195
*357 FILLER_0_16_197
*358 FILLER_0_16_209
*359 FILLER_0_16_221
*360 FILLER_0_16_233
*361 FILLER_0_16_245
*362 FILLER_0_16_251
*363 FILLER_0_16_253
*364 FILLER_0_16_265
*365 FILLER_0_16_27
*366 FILLER_0_16_277
*367 FILLER_0_16_289
*368 FILLER_0_16_29
*369 FILLER_0_16_3
*370 FILLER_0_16_301
*371 FILLER_0_16_307
*372 FILLER_0_16_309
*373 FILLER_0_16_321
*374 FILLER_0_16_333
*375 FILLER_0_16_41
*376 FILLER_0_16_53
*377 FILLER_0_16_65
*378 FILLER_0_16_77
*379 FILLER_0_16_83
*380 FILLER_0_16_85
*381 FILLER_0_16_97
*382 FILLER_0_17_105
*383 FILLER_0_17_111
*384 FILLER_0_17_113
*385 FILLER_0_17_125
*386 FILLER_0_17_137
*387 FILLER_0_17_149
*388 FILLER_0_17_15
*389 FILLER_0_17_161
*390 FILLER_0_17_167
*391 FILLER_0_17_169
*392 FILLER_0_17_181
*393 FILLER_0_17_193
*394 FILLER_0_17_205
*395 FILLER_0_17_217
*396 FILLER_0_17_223
*397 FILLER_0_17_225
*398 FILLER_0_17_237
*399 FILLER_0_17_249
*400 FILLER_0_17_261
*401 FILLER_0_17_27
*402 FILLER_0_17_273
*403 FILLER_0_17_279
*404 FILLER_0_17_281
*405 FILLER_0_17_293
*406 FILLER_0_17_3
*407 FILLER_0_17_305
*408 FILLER_0_17_317
*409 FILLER_0_17_329
*410 FILLER_0_17_39
*411 FILLER_0_17_51
*412 FILLER_0_17_55
*413 FILLER_0_17_57
*414 FILLER_0_17_69
*415 FILLER_0_17_81
*416 FILLER_0_17_93
*417 FILLER_0_18_109
*418 FILLER_0_18_121
*419 FILLER_0_18_133
*420 FILLER_0_18_139
*421 FILLER_0_18_141
*422 FILLER_0_18_15
*423 FILLER_0_18_153
*424 FILLER_0_18_165
*425 FILLER_0_18_177
*426 FILLER_0_18_189
*427 FILLER_0_18_195
*428 FILLER_0_18_197
*429 FILLER_0_18_209
*430 FILLER_0_18_221
*431 FILLER_0_18_233
*432 FILLER_0_18_245
*433 FILLER_0_18_251
*434 FILLER_0_18_253
*435 FILLER_0_18_265
*436 FILLER_0_18_27
*437 FILLER_0_18_277
*438 FILLER_0_18_289
*439 FILLER_0_18_29
*440 FILLER_0_18_3
*441 FILLER_0_18_301
*442 FILLER_0_18_307
*443 FILLER_0_18_309
*444 FILLER_0_18_321
*445 FILLER_0_18_333
*446 FILLER_0_18_41
*447 FILLER_0_18_53
*448 FILLER_0_18_65
*449 FILLER_0_18_77
*450 FILLER_0_18_83
*451 FILLER_0_18_85
*452 FILLER_0_18_97
*453 FILLER_0_19_105
*454 FILLER_0_19_111
*455 FILLER_0_19_113
*456 FILLER_0_19_125
*457 FILLER_0_19_137
*458 FILLER_0_19_149
*459 FILLER_0_19_15
*460 FILLER_0_19_161
*461 FILLER_0_19_167
*462 FILLER_0_19_169
*463 FILLER_0_19_181
*464 FILLER_0_19_193
*465 FILLER_0_19_205
*466 FILLER_0_19_217
*467 FILLER_0_19_223
*468 FILLER_0_19_225
*469 FILLER_0_19_237
*470 FILLER_0_19_249
*471 FILLER_0_19_261
*472 FILLER_0_19_27
*473 FILLER_0_19_273
*474 FILLER_0_19_279
*475 FILLER_0_19_281
*476 FILLER_0_19_293
*477 FILLER_0_19_3
*478 FILLER_0_19_305
*479 FILLER_0_19_317
*480 FILLER_0_19_329
*481 FILLER_0_19_39
*482 FILLER_0_19_51
*483 FILLER_0_19_55
*484 FILLER_0_19_57
*485 FILLER_0_19_69
*486 FILLER_0_19_81
*487 FILLER_0_19_93
*488 FILLER_0_1_105
*489 FILLER_0_1_111
*490 FILLER_0_1_113
*491 FILLER_0_1_125
*492 FILLER_0_1_137
*493 FILLER_0_1_149
*494 FILLER_0_1_15
*495 FILLER_0_1_161
*496 FILLER_0_1_167
*497 FILLER_0_1_169
*498 FILLER_0_1_181
*499 FILLER_0_1_193
*500 FILLER_0_1_205
*501 FILLER_0_1_217
*502 FILLER_0_1_223
*503 FILLER_0_1_225
*504 FILLER_0_1_237
*505 FILLER_0_1_249
*506 FILLER_0_1_261
*507 FILLER_0_1_27
*508 FILLER_0_1_273
*509 FILLER_0_1_279
*510 FILLER_0_1_281
*511 FILLER_0_1_293
*512 FILLER_0_1_3
*513 FILLER_0_1_305
*514 FILLER_0_1_317
*515 FILLER_0_1_329
*516 FILLER_0_1_39
*517 FILLER_0_1_51
*518 FILLER_0_1_55
*519 FILLER_0_1_57
*520 FILLER_0_1_69
*521 FILLER_0_1_81
*522 FILLER_0_1_93
*523 FILLER_0_20_109
*524 FILLER_0_20_121
*525 FILLER_0_20_133
*526 FILLER_0_20_139
*527 FILLER_0_20_141
*528 FILLER_0_20_15
*529 FILLER_0_20_153
*530 FILLER_0_20_165
*531 FILLER_0_20_177
*532 FILLER_0_20_189
*533 FILLER_0_20_195
*534 FILLER_0_20_197
*535 FILLER_0_20_209
*536 FILLER_0_20_221
*537 FILLER_0_20_233
*538 FILLER_0_20_245
*539 FILLER_0_20_251
*540 FILLER_0_20_253
*541 FILLER_0_20_265
*542 FILLER_0_20_27
*543 FILLER_0_20_277
*544 FILLER_0_20_289
*545 FILLER_0_20_29
*546 FILLER_0_20_3
*547 FILLER_0_20_301
*548 FILLER_0_20_307
*549 FILLER_0_20_309
*550 FILLER_0_20_321
*551 FILLER_0_20_333
*552 FILLER_0_20_41
*553 FILLER_0_20_53
*554 FILLER_0_20_65
*555 FILLER_0_20_77
*556 FILLER_0_20_83
*557 FILLER_0_20_85
*558 FILLER_0_20_97
*559 FILLER_0_21_105
*560 FILLER_0_21_111
*561 FILLER_0_21_113
*562 FILLER_0_21_125
*563 FILLER_0_21_137
*564 FILLER_0_21_149
*565 FILLER_0_21_15
*566 FILLER_0_21_161
*567 FILLER_0_21_167
*568 FILLER_0_21_169
*569 FILLER_0_21_181
*570 FILLER_0_21_193
*571 FILLER_0_21_205
*572 FILLER_0_21_217
*573 FILLER_0_21_223
*574 FILLER_0_21_225
*575 FILLER_0_21_237
*576 FILLER_0_21_249
*577 FILLER_0_21_261
*578 FILLER_0_21_27
*579 FILLER_0_21_273
*580 FILLER_0_21_279
*581 FILLER_0_21_281
*582 FILLER_0_21_293
*583 FILLER_0_21_3
*584 FILLER_0_21_305
*585 FILLER_0_21_317
*586 FILLER_0_21_329
*587 FILLER_0_21_39
*588 FILLER_0_21_51
*589 FILLER_0_21_55
*590 FILLER_0_21_57
*591 FILLER_0_21_69
*592 FILLER_0_21_81
*593 FILLER_0_21_93
*594 FILLER_0_22_109
*595 FILLER_0_22_121
*596 FILLER_0_22_133
*597 FILLER_0_22_139
*598 FILLER_0_22_141
*599 FILLER_0_22_15
*600 FILLER_0_22_153
*601 FILLER_0_22_165
*602 FILLER_0_22_177
*603 FILLER_0_22_189
*604 FILLER_0_22_195
*605 FILLER_0_22_197
*606 FILLER_0_22_209
*607 FILLER_0_22_221
*608 FILLER_0_22_233
*609 FILLER_0_22_245
*610 FILLER_0_22_251
*611 FILLER_0_22_253
*612 FILLER_0_22_265
*613 FILLER_0_22_27
*614 FILLER_0_22_277
*615 FILLER_0_22_289
*616 FILLER_0_22_29
*617 FILLER_0_22_3
*618 FILLER_0_22_301
*619 FILLER_0_22_307
*620 FILLER_0_22_309
*621 FILLER_0_22_321
*622 FILLER_0_22_333
*623 FILLER_0_22_41
*624 FILLER_0_22_53
*625 FILLER_0_22_65
*626 FILLER_0_22_77
*627 FILLER_0_22_83
*628 FILLER_0_22_85
*629 FILLER_0_22_97
*630 FILLER_0_23_105
*631 FILLER_0_23_111
*632 FILLER_0_23_113
*633 FILLER_0_23_125
*634 FILLER_0_23_137
*635 FILLER_0_23_149
*636 FILLER_0_23_15
*637 FILLER_0_23_161
*638 FILLER_0_23_167
*639 FILLER_0_23_169
*640 FILLER_0_23_181
*641 FILLER_0_23_193
*642 FILLER_0_23_205
*643 FILLER_0_23_217
*644 FILLER_0_23_223
*645 FILLER_0_23_225
*646 FILLER_0_23_237
*647 FILLER_0_23_249
*648 FILLER_0_23_261
*649 FILLER_0_23_27
*650 FILLER_0_23_273
*651 FILLER_0_23_279
*652 FILLER_0_23_281
*653 FILLER_0_23_293
*654 FILLER_0_23_3
*655 FILLER_0_23_305
*656 FILLER_0_23_317
*657 FILLER_0_23_329
*658 FILLER_0_23_39
*659 FILLER_0_23_51
*660 FILLER_0_23_55
*661 FILLER_0_23_57
*662 FILLER_0_23_69
*663 FILLER_0_23_81
*664 FILLER_0_23_93
*665 FILLER_0_24_109
*666 FILLER_0_24_121
*667 FILLER_0_24_133
*668 FILLER_0_24_139
*669 FILLER_0_24_141
*670 FILLER_0_24_15
*671 FILLER_0_24_153
*672 FILLER_0_24_165
*673 FILLER_0_24_177
*674 FILLER_0_24_189
*675 FILLER_0_24_195
*676 FILLER_0_24_197
*677 FILLER_0_24_209
*678 FILLER_0_24_221
*679 FILLER_0_24_233
*680 FILLER_0_24_245
*681 FILLER_0_24_251
*682 FILLER_0_24_253
*683 FILLER_0_24_265
*684 FILLER_0_24_27
*685 FILLER_0_24_277
*686 FILLER_0_24_289
*687 FILLER_0_24_29
*688 FILLER_0_24_3
*689 FILLER_0_24_301
*690 FILLER_0_24_307
*691 FILLER_0_24_309
*692 FILLER_0_24_321
*693 FILLER_0_24_333
*694 FILLER_0_24_41
*695 FILLER_0_24_53
*696 FILLER_0_24_65
*697 FILLER_0_24_77
*698 FILLER_0_24_83
*699 FILLER_0_24_85
*700 FILLER_0_24_97
*701 FILLER_0_25_105
*702 FILLER_0_25_111
*703 FILLER_0_25_113
*704 FILLER_0_25_125
*705 FILLER_0_25_137
*706 FILLER_0_25_149
*707 FILLER_0_25_15
*708 FILLER_0_25_161
*709 FILLER_0_25_167
*710 FILLER_0_25_169
*711 FILLER_0_25_181
*712 FILLER_0_25_193
*713 FILLER_0_25_205
*714 FILLER_0_25_217
*715 FILLER_0_25_223
*716 FILLER_0_25_225
*717 FILLER_0_25_237
*718 FILLER_0_25_249
*719 FILLER_0_25_261
*720 FILLER_0_25_27
*721 FILLER_0_25_273
*722 FILLER_0_25_279
*723 FILLER_0_25_281
*724 FILLER_0_25_293
*725 FILLER_0_25_3
*726 FILLER_0_25_305
*727 FILLER_0_25_317
*728 FILLER_0_25_329
*729 FILLER_0_25_39
*730 FILLER_0_25_51
*731 FILLER_0_25_55
*732 FILLER_0_25_57
*733 FILLER_0_25_69
*734 FILLER_0_25_81
*735 FILLER_0_25_93
*736 FILLER_0_26_109
*737 FILLER_0_26_121
*738 FILLER_0_26_133
*739 FILLER_0_26_139
*740 FILLER_0_26_141
*741 FILLER_0_26_15
*742 FILLER_0_26_153
*743 FILLER_0_26_165
*744 FILLER_0_26_177
*745 FILLER_0_26_189
*746 FILLER_0_26_195
*747 FILLER_0_26_197
*748 FILLER_0_26_209
*749 FILLER_0_26_221
*750 FILLER_0_26_233
*751 FILLER_0_26_245
*752 FILLER_0_26_251
*753 FILLER_0_26_253
*754 FILLER_0_26_265
*755 FILLER_0_26_27
*756 FILLER_0_26_277
*757 FILLER_0_26_289
*758 FILLER_0_26_29
*759 FILLER_0_26_3
*760 FILLER_0_26_301
*761 FILLER_0_26_307
*762 FILLER_0_26_309
*763 FILLER_0_26_321
*764 FILLER_0_26_333
*765 FILLER_0_26_41
*766 FILLER_0_26_53
*767 FILLER_0_26_65
*768 FILLER_0_26_77
*769 FILLER_0_26_83
*770 FILLER_0_26_85
*771 FILLER_0_26_97
*772 FILLER_0_27_105
*773 FILLER_0_27_111
*774 FILLER_0_27_113
*775 FILLER_0_27_125
*776 FILLER_0_27_137
*777 FILLER_0_27_149
*778 FILLER_0_27_15
*779 FILLER_0_27_161
*780 FILLER_0_27_167
*781 FILLER_0_27_169
*782 FILLER_0_27_181
*783 FILLER_0_27_193
*784 FILLER_0_27_205
*785 FILLER_0_27_217
*786 FILLER_0_27_223
*787 FILLER_0_27_225
*788 FILLER_0_27_237
*789 FILLER_0_27_249
*790 FILLER_0_27_261
*791 FILLER_0_27_27
*792 FILLER_0_27_273
*793 FILLER_0_27_279
*794 FILLER_0_27_281
*795 FILLER_0_27_293
*796 FILLER_0_27_3
*797 FILLER_0_27_305
*798 FILLER_0_27_317
*799 FILLER_0_27_329
*800 FILLER_0_27_39
*801 FILLER_0_27_51
*802 FILLER_0_27_55
*803 FILLER_0_27_57
*804 FILLER_0_27_69
*805 FILLER_0_27_81
*806 FILLER_0_27_93
*807 FILLER_0_28_109
*808 FILLER_0_28_121
*809 FILLER_0_28_133
*810 FILLER_0_28_139
*811 FILLER_0_28_141
*812 FILLER_0_28_15
*813 FILLER_0_28_153
*814 FILLER_0_28_165
*815 FILLER_0_28_177
*816 FILLER_0_28_189
*817 FILLER_0_28_195
*818 FILLER_0_28_197
*819 FILLER_0_28_209
*820 FILLER_0_28_221
*821 FILLER_0_28_233
*822 FILLER_0_28_245
*823 FILLER_0_28_251
*824 FILLER_0_28_253
*825 FILLER_0_28_265
*826 FILLER_0_28_27
*827 FILLER_0_28_277
*828 FILLER_0_28_289
*829 FILLER_0_28_29
*830 FILLER_0_28_3
*831 FILLER_0_28_301
*832 FILLER_0_28_307
*833 FILLER_0_28_309
*834 FILLER_0_28_321
*835 FILLER_0_28_333
*836 FILLER_0_28_41
*837 FILLER_0_28_53
*838 FILLER_0_28_65
*839 FILLER_0_28_77
*840 FILLER_0_28_83
*841 FILLER_0_28_85
*842 FILLER_0_28_97
*843 FILLER_0_29_105
*844 FILLER_0_29_111
*845 FILLER_0_29_113
*846 FILLER_0_29_125
*847 FILLER_0_29_137
*848 FILLER_0_29_149
*849 FILLER_0_29_15
*850 FILLER_0_29_161
*851 FILLER_0_29_167
*852 FILLER_0_29_169
*853 FILLER_0_29_181
*854 FILLER_0_29_193
*855 FILLER_0_29_205
*856 FILLER_0_29_217
*857 FILLER_0_29_223
*858 FILLER_0_29_225
*859 FILLER_0_29_237
*860 FILLER_0_29_249
*861 FILLER_0_29_261
*862 FILLER_0_29_27
*863 FILLER_0_29_273
*864 FILLER_0_29_279
*865 FILLER_0_29_281
*866 FILLER_0_29_293
*867 FILLER_0_29_3
*868 FILLER_0_29_305
*869 FILLER_0_29_317
*870 FILLER_0_29_329
*871 FILLER_0_29_39
*872 FILLER_0_29_51
*873 FILLER_0_29_55
*874 FILLER_0_29_57
*875 FILLER_0_29_69
*876 FILLER_0_29_81
*877 FILLER_0_29_93
*878 FILLER_0_2_109
*879 FILLER_0_2_121
*880 FILLER_0_2_133
*881 FILLER_0_2_139
*882 FILLER_0_2_141
*883 FILLER_0_2_15
*884 FILLER_0_2_153
*885 FILLER_0_2_165
*886 FILLER_0_2_177
*887 FILLER_0_2_189
*888 FILLER_0_2_195
*889 FILLER_0_2_197
*890 FILLER_0_2_209
*891 FILLER_0_2_221
*892 FILLER_0_2_233
*893 FILLER_0_2_245
*894 FILLER_0_2_251
*895 FILLER_0_2_253
*896 FILLER_0_2_265
*897 FILLER_0_2_27
*898 FILLER_0_2_277
*899 FILLER_0_2_289
*900 FILLER_0_2_29
*901 FILLER_0_2_3
*902 FILLER_0_2_301
*903 FILLER_0_2_307
*904 FILLER_0_2_309
*905 FILLER_0_2_321
*906 FILLER_0_2_333
*907 FILLER_0_2_41
*908 FILLER_0_2_53
*909 FILLER_0_2_65
*910 FILLER_0_2_77
*911 FILLER_0_2_83
*912 FILLER_0_2_85
*913 FILLER_0_2_97
*914 FILLER_0_30_109
*915 FILLER_0_30_121
*916 FILLER_0_30_133
*917 FILLER_0_30_139
*918 FILLER_0_30_141
*919 FILLER_0_30_15
*920 FILLER_0_30_153
*921 FILLER_0_30_165
*922 FILLER_0_30_177
*923 FILLER_0_30_189
*924 FILLER_0_30_195
*925 FILLER_0_30_197
*926 FILLER_0_30_209
*927 FILLER_0_30_221
*928 FILLER_0_30_233
*929 FILLER_0_30_245
*930 FILLER_0_30_251
*931 FILLER_0_30_253
*932 FILLER_0_30_265
*933 FILLER_0_30_27
*934 FILLER_0_30_277
*935 FILLER_0_30_289
*936 FILLER_0_30_29
*937 FILLER_0_30_3
*938 FILLER_0_30_301
*939 FILLER_0_30_307
*940 FILLER_0_30_309
*941 FILLER_0_30_321
*942 FILLER_0_30_333
*943 FILLER_0_30_41
*944 FILLER_0_30_53
*945 FILLER_0_30_65
*946 FILLER_0_30_77
*947 FILLER_0_30_83
*948 FILLER_0_30_85
*949 FILLER_0_30_97
*950 FILLER_0_31_105
*951 FILLER_0_31_111
*952 FILLER_0_31_113
*953 FILLER_0_31_125
*954 FILLER_0_31_137
*955 FILLER_0_31_149
*956 FILLER_0_31_15
*957 FILLER_0_31_161
*958 FILLER_0_31_167
*959 FILLER_0_31_169
*960 FILLER_0_31_181
*961 FILLER_0_31_193
*962 FILLER_0_31_205
*963 FILLER_0_31_217
*964 FILLER_0_31_223
*965 FILLER_0_31_225
*966 FILLER_0_31_237
*967 FILLER_0_31_249
*968 FILLER_0_31_261
*969 FILLER_0_31_27
*970 FILLER_0_31_273
*971 FILLER_0_31_279
*972 FILLER_0_31_281
*973 FILLER_0_31_293
*974 FILLER_0_31_3
*975 FILLER_0_31_305
*976 FILLER_0_31_317
*977 FILLER_0_31_329
*978 FILLER_0_31_39
*979 FILLER_0_31_51
*980 FILLER_0_31_55
*981 FILLER_0_31_57
*982 FILLER_0_31_69
*983 FILLER_0_31_81
*984 FILLER_0_31_93
*985 FILLER_0_32_109
*986 FILLER_0_32_121
*987 FILLER_0_32_133
*988 FILLER_0_32_139
*989 FILLER_0_32_141
*990 FILLER_0_32_15
*991 FILLER_0_32_153
*992 FILLER_0_32_165
*993 FILLER_0_32_177
*994 FILLER_0_32_189
*995 FILLER_0_32_195
*996 FILLER_0_32_197
*997 FILLER_0_32_209
*998 FILLER_0_32_221
*999 FILLER_0_32_233
*1000 FILLER_0_32_245
*1001 FILLER_0_32_251
*1002 FILLER_0_32_253
*1003 FILLER_0_32_265
*1004 FILLER_0_32_27
*1005 FILLER_0_32_277
*1006 FILLER_0_32_289
*1007 FILLER_0_32_29
*1008 FILLER_0_32_3
*1009 FILLER_0_32_301
*1010 FILLER_0_32_307
*1011 FILLER_0_32_309
*1012 FILLER_0_32_321
*1013 FILLER_0_32_333
*1014 FILLER_0_32_41
*1015 FILLER_0_32_53
*1016 FILLER_0_32_65
*1017 FILLER_0_32_77
*1018 FILLER_0_32_83
*1019 FILLER_0_32_85
*1020 FILLER_0_32_97
*1021 FILLER_0_33_105
*1022 FILLER_0_33_111
*1023 FILLER_0_33_113
*1024 FILLER_0_33_125
*1025 FILLER_0_33_137
*1026 FILLER_0_33_149
*1027 FILLER_0_33_15
*1028 FILLER_0_33_161
*1029 FILLER_0_33_167
*1030 FILLER_0_33_169
*1031 FILLER_0_33_181
*1032 FILLER_0_33_193
*1033 FILLER_0_33_205
*1034 FILLER_0_33_217
*1035 FILLER_0_33_223
*1036 FILLER_0_33_225
*1037 FILLER_0_33_237
*1038 FILLER_0_33_249
*1039 FILLER_0_33_261
*1040 FILLER_0_33_27
*1041 FILLER_0_33_273
*1042 FILLER_0_33_279
*1043 FILLER_0_33_281
*1044 FILLER_0_33_293
*1045 FILLER_0_33_3
*1046 FILLER_0_33_305
*1047 FILLER_0_33_317
*1048 FILLER_0_33_329
*1049 FILLER_0_33_39
*1050 FILLER_0_33_51
*1051 FILLER_0_33_55
*1052 FILLER_0_33_57
*1053 FILLER_0_33_69
*1054 FILLER_0_33_81
*1055 FILLER_0_33_93
*1056 FILLER_0_34_109
*1057 FILLER_0_34_121
*1058 FILLER_0_34_133
*1059 FILLER_0_34_139
*1060 FILLER_0_34_141
*1061 FILLER_0_34_15
*1062 FILLER_0_34_153
*1063 FILLER_0_34_165
*1064 FILLER_0_34_177
*1065 FILLER_0_34_189
*1066 FILLER_0_34_195
*1067 FILLER_0_34_197
*1068 FILLER_0_34_209
*1069 FILLER_0_34_221
*1070 FILLER_0_34_233
*1071 FILLER_0_34_245
*1072 FILLER_0_34_251
*1073 FILLER_0_34_253
*1074 FILLER_0_34_265
*1075 FILLER_0_34_27
*1076 FILLER_0_34_277
*1077 FILLER_0_34_289
*1078 FILLER_0_34_29
*1079 FILLER_0_34_3
*1080 FILLER_0_34_301
*1081 FILLER_0_34_307
*1082 FILLER_0_34_309
*1083 FILLER_0_34_321
*1084 FILLER_0_34_333
*1085 FILLER_0_34_41
*1086 FILLER_0_34_53
*1087 FILLER_0_34_65
*1088 FILLER_0_34_77
*1089 FILLER_0_34_83
*1090 FILLER_0_34_85
*1091 FILLER_0_34_97
*1092 FILLER_0_35_105
*1093 FILLER_0_35_111
*1094 FILLER_0_35_113
*1095 FILLER_0_35_125
*1096 FILLER_0_35_137
*1097 FILLER_0_35_149
*1098 FILLER_0_35_15
*1099 FILLER_0_35_161
*1100 FILLER_0_35_167
*1101 FILLER_0_35_169
*1102 FILLER_0_35_181
*1103 FILLER_0_35_193
*1104 FILLER_0_35_205
*1105 FILLER_0_35_217
*1106 FILLER_0_35_223
*1107 FILLER_0_35_225
*1108 FILLER_0_35_237
*1109 FILLER_0_35_249
*1110 FILLER_0_35_261
*1111 FILLER_0_35_27
*1112 FILLER_0_35_273
*1113 FILLER_0_35_279
*1114 FILLER_0_35_281
*1115 FILLER_0_35_293
*1116 FILLER_0_35_3
*1117 FILLER_0_35_305
*1118 FILLER_0_35_317
*1119 FILLER_0_35_329
*1120 FILLER_0_35_39
*1121 FILLER_0_35_51
*1122 FILLER_0_35_55
*1123 FILLER_0_35_57
*1124 FILLER_0_35_69
*1125 FILLER_0_35_81
*1126 FILLER_0_35_93
*1127 FILLER_0_36_109
*1128 FILLER_0_36_121
*1129 FILLER_0_36_133
*1130 FILLER_0_36_139
*1131 FILLER_0_36_141
*1132 FILLER_0_36_15
*1133 FILLER_0_36_153
*1134 FILLER_0_36_165
*1135 FILLER_0_36_177
*1136 FILLER_0_36_189
*1137 FILLER_0_36_195
*1138 FILLER_0_36_197
*1139 FILLER_0_36_209
*1140 FILLER_0_36_221
*1141 FILLER_0_36_233
*1142 FILLER_0_36_245
*1143 FILLER_0_36_251
*1144 FILLER_0_36_253
*1145 FILLER_0_36_265
*1146 FILLER_0_36_27
*1147 FILLER_0_36_277
*1148 FILLER_0_36_289
*1149 FILLER_0_36_29
*1150 FILLER_0_36_3
*1151 FILLER_0_36_301
*1152 FILLER_0_36_307
*1153 FILLER_0_36_309
*1154 FILLER_0_36_321
*1155 FILLER_0_36_333
*1156 FILLER_0_36_41
*1157 FILLER_0_36_53
*1158 FILLER_0_36_65
*1159 FILLER_0_36_77
*1160 FILLER_0_36_83
*1161 FILLER_0_36_85
*1162 FILLER_0_36_97
*1163 FILLER_0_37_105
*1164 FILLER_0_37_111
*1165 FILLER_0_37_113
*1166 FILLER_0_37_125
*1167 FILLER_0_37_137
*1168 FILLER_0_37_149
*1169 FILLER_0_37_15
*1170 FILLER_0_37_161
*1171 FILLER_0_37_167
*1172 FILLER_0_37_169
*1173 FILLER_0_37_181
*1174 FILLER_0_37_193
*1175 FILLER_0_37_205
*1176 FILLER_0_37_217
*1177 FILLER_0_37_223
*1178 FILLER_0_37_225
*1179 FILLER_0_37_237
*1180 FILLER_0_37_249
*1181 FILLER_0_37_261
*1182 FILLER_0_37_27
*1183 FILLER_0_37_273
*1184 FILLER_0_37_279
*1185 FILLER_0_37_281
*1186 FILLER_0_37_293
*1187 FILLER_0_37_3
*1188 FILLER_0_37_305
*1189 FILLER_0_37_317
*1190 FILLER_0_37_329
*1191 FILLER_0_37_39
*1192 FILLER_0_37_51
*1193 FILLER_0_37_55
*1194 FILLER_0_37_57
*1195 FILLER_0_37_69
*1196 FILLER_0_37_81
*1197 FILLER_0_37_93
*1198 FILLER_0_38_109
*1199 FILLER_0_38_121
*1200 FILLER_0_38_133
*1201 FILLER_0_38_139
*1202 FILLER_0_38_141
*1203 FILLER_0_38_15
*1204 FILLER_0_38_153
*1205 FILLER_0_38_165
*1206 FILLER_0_38_177
*1207 FILLER_0_38_189
*1208 FILLER_0_38_195
*1209 FILLER_0_38_197
*1210 FILLER_0_38_209
*1211 FILLER_0_38_221
*1212 FILLER_0_38_233
*1213 FILLER_0_38_245
*1214 FILLER_0_38_251
*1215 FILLER_0_38_253
*1216 FILLER_0_38_265
*1217 FILLER_0_38_27
*1218 FILLER_0_38_277
*1219 FILLER_0_38_289
*1220 FILLER_0_38_29
*1221 FILLER_0_38_3
*1222 FILLER_0_38_301
*1223 FILLER_0_38_307
*1224 FILLER_0_38_309
*1225 FILLER_0_38_321
*1226 FILLER_0_38_333
*1227 FILLER_0_38_41
*1228 FILLER_0_38_53
*1229 FILLER_0_38_65
*1230 FILLER_0_38_77
*1231 FILLER_0_38_83
*1232 FILLER_0_38_85
*1233 FILLER_0_38_97
*1234 FILLER_0_39_105
*1235 FILLER_0_39_111
*1236 FILLER_0_39_113
*1237 FILLER_0_39_125
*1238 FILLER_0_39_137
*1239 FILLER_0_39_149
*1240 FILLER_0_39_15
*1241 FILLER_0_39_161
*1242 FILLER_0_39_167
*1243 FILLER_0_39_169
*1244 FILLER_0_39_181
*1245 FILLER_0_39_193
*1246 FILLER_0_39_205
*1247 FILLER_0_39_217
*1248 FILLER_0_39_223
*1249 FILLER_0_39_225
*1250 FILLER_0_39_237
*1251 FILLER_0_39_249
*1252 FILLER_0_39_261
*1253 FILLER_0_39_27
*1254 FILLER_0_39_273
*1255 FILLER_0_39_279
*1256 FILLER_0_39_281
*1257 FILLER_0_39_293
*1258 FILLER_0_39_3
*1259 FILLER_0_39_305
*1260 FILLER_0_39_317
*1261 FILLER_0_39_329
*1262 FILLER_0_39_39
*1263 FILLER_0_39_51
*1264 FILLER_0_39_55
*1265 FILLER_0_39_57
*1266 FILLER_0_39_69
*1267 FILLER_0_39_81
*1268 FILLER_0_39_93
*1269 FILLER_0_3_105
*1270 FILLER_0_3_111
*1271 FILLER_0_3_113
*1272 FILLER_0_3_125
*1273 FILLER_0_3_137
*1274 FILLER_0_3_149
*1275 FILLER_0_3_15
*1276 FILLER_0_3_161
*1277 FILLER_0_3_167
*1278 FILLER_0_3_169
*1279 FILLER_0_3_181
*1280 FILLER_0_3_193
*1281 FILLER_0_3_205
*1282 FILLER_0_3_217
*1283 FILLER_0_3_223
*1284 FILLER_0_3_225
*1285 FILLER_0_3_237
*1286 FILLER_0_3_249
*1287 FILLER_0_3_261
*1288 FILLER_0_3_27
*1289 FILLER_0_3_273
*1290 FILLER_0_3_279
*1291 FILLER_0_3_281
*1292 FILLER_0_3_293
*1293 FILLER_0_3_3
*1294 FILLER_0_3_305
*1295 FILLER_0_3_317
*1296 FILLER_0_3_329
*1297 FILLER_0_3_39
*1298 FILLER_0_3_51
*1299 FILLER_0_3_55
*1300 FILLER_0_3_57
*1301 FILLER_0_3_69
*1302 FILLER_0_3_81
*1303 FILLER_0_3_93
*1304 FILLER_0_40_109
*1305 FILLER_0_40_121
*1306 FILLER_0_40_133
*1307 FILLER_0_40_139
*1308 FILLER_0_40_141
*1309 FILLER_0_40_15
*1310 FILLER_0_40_153
*1311 FILLER_0_40_165
*1312 FILLER_0_40_177
*1313 FILLER_0_40_189
*1314 FILLER_0_40_195
*1315 FILLER_0_40_197
*1316 FILLER_0_40_209
*1317 FILLER_0_40_221
*1318 FILLER_0_40_233
*1319 FILLER_0_40_245
*1320 FILLER_0_40_251
*1321 FILLER_0_40_253
*1322 FILLER_0_40_265
*1323 FILLER_0_40_27
*1324 FILLER_0_40_277
*1325 FILLER_0_40_289
*1326 FILLER_0_40_29
*1327 FILLER_0_40_3
*1328 FILLER_0_40_301
*1329 FILLER_0_40_307
*1330 FILLER_0_40_309
*1331 FILLER_0_40_321
*1332 FILLER_0_40_333
*1333 FILLER_0_40_41
*1334 FILLER_0_40_53
*1335 FILLER_0_40_65
*1336 FILLER_0_40_77
*1337 FILLER_0_40_83
*1338 FILLER_0_40_85
*1339 FILLER_0_40_97
*1340 FILLER_0_41_105
*1341 FILLER_0_41_111
*1342 FILLER_0_41_113
*1343 FILLER_0_41_125
*1344 FILLER_0_41_137
*1345 FILLER_0_41_149
*1346 FILLER_0_41_15
*1347 FILLER_0_41_161
*1348 FILLER_0_41_167
*1349 FILLER_0_41_169
*1350 FILLER_0_41_181
*1351 FILLER_0_41_193
*1352 FILLER_0_41_205
*1353 FILLER_0_41_217
*1354 FILLER_0_41_223
*1355 FILLER_0_41_225
*1356 FILLER_0_41_237
*1357 FILLER_0_41_249
*1358 FILLER_0_41_261
*1359 FILLER_0_41_27
*1360 FILLER_0_41_273
*1361 FILLER_0_41_279
*1362 FILLER_0_41_281
*1363 FILLER_0_41_293
*1364 FILLER_0_41_3
*1365 FILLER_0_41_305
*1366 FILLER_0_41_317
*1367 FILLER_0_41_329
*1368 FILLER_0_41_39
*1369 FILLER_0_41_51
*1370 FILLER_0_41_55
*1371 FILLER_0_41_57
*1372 FILLER_0_41_69
*1373 FILLER_0_41_81
*1374 FILLER_0_41_93
*1375 FILLER_0_42_109
*1376 FILLER_0_42_121
*1377 FILLER_0_42_133
*1378 FILLER_0_42_139
*1379 FILLER_0_42_141
*1380 FILLER_0_42_15
*1381 FILLER_0_42_153
*1382 FILLER_0_42_165
*1383 FILLER_0_42_177
*1384 FILLER_0_42_189
*1385 FILLER_0_42_195
*1386 FILLER_0_42_197
*1387 FILLER_0_42_209
*1388 FILLER_0_42_221
*1389 FILLER_0_42_233
*1390 FILLER_0_42_245
*1391 FILLER_0_42_251
*1392 FILLER_0_42_253
*1393 FILLER_0_42_265
*1394 FILLER_0_42_27
*1395 FILLER_0_42_277
*1396 FILLER_0_42_289
*1397 FILLER_0_42_29
*1398 FILLER_0_42_3
*1399 FILLER_0_42_301
*1400 FILLER_0_42_307
*1401 FILLER_0_42_309
*1402 FILLER_0_42_321
*1403 FILLER_0_42_333
*1404 FILLER_0_42_41
*1405 FILLER_0_42_53
*1406 FILLER_0_42_65
*1407 FILLER_0_42_77
*1408 FILLER_0_42_83
*1409 FILLER_0_42_85
*1410 FILLER_0_42_97
*1411 FILLER_0_43_105
*1412 FILLER_0_43_111
*1413 FILLER_0_43_113
*1414 FILLER_0_43_125
*1415 FILLER_0_43_137
*1416 FILLER_0_43_149
*1417 FILLER_0_43_15
*1418 FILLER_0_43_161
*1419 FILLER_0_43_167
*1420 FILLER_0_43_169
*1421 FILLER_0_43_181
*1422 FILLER_0_43_193
*1423 FILLER_0_43_205
*1424 FILLER_0_43_217
*1425 FILLER_0_43_223
*1426 FILLER_0_43_225
*1427 FILLER_0_43_237
*1428 FILLER_0_43_249
*1429 FILLER_0_43_261
*1430 FILLER_0_43_27
*1431 FILLER_0_43_273
*1432 FILLER_0_43_279
*1433 FILLER_0_43_281
*1434 FILLER_0_43_293
*1435 FILLER_0_43_3
*1436 FILLER_0_43_305
*1437 FILLER_0_43_317
*1438 FILLER_0_43_329
*1439 FILLER_0_43_39
*1440 FILLER_0_43_51
*1441 FILLER_0_43_55
*1442 FILLER_0_43_57
*1443 FILLER_0_43_69
*1444 FILLER_0_43_81
*1445 FILLER_0_43_93
*1446 FILLER_0_44_109
*1447 FILLER_0_44_121
*1448 FILLER_0_44_133
*1449 FILLER_0_44_139
*1450 FILLER_0_44_141
*1451 FILLER_0_44_15
*1452 FILLER_0_44_153
*1453 FILLER_0_44_165
*1454 FILLER_0_44_177
*1455 FILLER_0_44_189
*1456 FILLER_0_44_195
*1457 FILLER_0_44_197
*1458 FILLER_0_44_209
*1459 FILLER_0_44_221
*1460 FILLER_0_44_233
*1461 FILLER_0_44_245
*1462 FILLER_0_44_251