*SPEF "ieee 1481-1999"
*DESIGN "tt_um_maxluppe_NIST"
*DATE "15:03:18 Saturday June 01, 2024"
*VENDOR "The OpenROAD Project"
*PROGRAM "OpenROAD"
*VERSION "da0053d7b0014ab9c87ea148875ff6c2a0f9b658"
*DESIGN_FLOW "NAME_SCOPE LOCAL" "PIN_CAP NONE"
*DIVIDER /
*DELIMITER :
*BUS_DELIMITER []
*T_UNIT 1 NS
*C_UNIT 1 PF
*R_UNIT 1 OHM
*L_UNIT 1 HENRY

*NAME_MAP
*3 clk
*4 ena
*5 rst_n
*6 ui_in[0]
*7 ui_in[1]
*8 ui_in[2]
*9 ui_in[3]
*10 ui_in[4]
*11 ui_in[5]
*12 ui_in[6]
*13 ui_in[7]
*14 uio_in[0]
*15 uio_in[1]
*16 uio_in[2]
*17 uio_in[3]
*18 uio_in[4]
*19 uio_in[5]
*20 uio_in[6]
*21 uio_in[7]
*22 net30
*23 net31
*24 net32
*25 net33
*26 net22
*27 net23
*28 net24
*29 net25
*30 uio_out[0]
*31 uio_out[1]
*32 uio_out[2]
*33 uio_out[3]
*34 net26
*35 net27
*36 net28
*37 net29
*38 uo_out[0]
*39 uo_out[1]
*40 uo_out[2]
*41 uo_out[3]
*42 uo_out[4]
*43 uo_out[5]
*44 uo_out[6]
*45 uo_out[7]
*46 NIST0123\.RND_in
*47 NIST0123\.error1
*48 NIST0123\.error2
*49 NIST0123\.error3
*50 NIST0123\.error4
*51 NIST0123\.uut1\.Sn\[0\]
*52 NIST0123\.uut1\.Sn\[1\]
*53 NIST0123\.uut1\.Sn\[2\]
*54 NIST0123\.uut1\.Sn\[3\]
*55 NIST0123\.uut1\.Sn\[4\]
*56 NIST0123\.uut1\.Sn\[5\]
*57 NIST0123\.uut1\.Sn\[6\]
*58 NIST0123\.uut1\.Sn\[7\]
*59 NIST0123\.uut1\.cout1
*60 NIST0123\.uut1\.cout2
*61 NIST0123\.uut1\.invalid_blks\[0\]
*62 NIST0123\.uut1\.invalid_blks\[1\]
*63 NIST0123\.uut1\.invalid_blks\[2\]
*64 NIST0123\.uut1\.reset1
*65 NIST0123\.uut1\.reset2
*66 NIST0123\.uut1\.u3\.q\[0\]
*67 NIST0123\.uut1\.u3\.q\[1\]
*68 NIST0123\.uut1\.u3\.q\[2\]
*69 NIST0123\.uut1\.u3\.q\[3\]
*70 NIST0123\.uut1\.u3\.q\[4\]
*71 NIST0123\.uut1\.u3\.q\[5\]
*72 NIST0123\.uut1\.u3\.q\[6\]
*73 NIST0123\.uut1\.u4\.q
*74 NIST0123\.uut1\.u7\.q\[0\]
*75 NIST0123\.uut1\.u7\.q\[1\]
*76 NIST0123\.uut1\.u7\.q\[2\]
*77 NIST0123\.uut1\.u7\.q\[3\]
*78 NIST0123\.uut1\.u7\.q\[4\]
*79 NIST0123\.uut1\.u7\.q\[5\]
*80 NIST0123\.uut1\.u7\.q\[6\]
*81 NIST0123\.uut1\.u8\.q
*82 NIST0123\.uut2\.C_counter\.q\[0\]
*83 NIST0123\.uut2\.C_counter\.q\[1\]
*84 NIST0123\.uut2\.C_counter\.q\[2\]
*85 NIST0123\.uut2\.C_counter\.q\[3\]
*86 NIST0123\.uut2\.C_counter\.rstn
*87 NIST0123\.uut2\.Sigma\[0\]
*88 NIST0123\.uut2\.Sigma\[1\]
*89 NIST0123\.uut2\.Sigma\[2\]
*90 NIST0123\.uut2\.Sigma\[3\]
*91 NIST0123\.uut2\.Sigma\[4\]
*92 NIST0123\.uut2\.Sigma\[5\]
*93 NIST0123\.uut2\.Sigma\[6\]
*94 NIST0123\.uut2\.Sigma\[7\]
*95 NIST0123\.uut2\.Sigma\[8\]
*96 NIST0123\.uut2\.cout1
*97 NIST0123\.uut2\.cout1a
*98 NIST0123\.uut2\.cout2
*99 NIST0123\.uut2\.invalid_blks\[0\]
*100 NIST0123\.uut2\.invalid_blks\[1\]
*101 NIST0123\.uut2\.invalid_blks\[2\]
*102 NIST0123\.uut2\.reset1
*103 NIST0123\.uut2\.reset2
*104 NIST0123\.uut2\.u4\.q\[0\]
*105 NIST0123\.uut2\.u4\.q\[1\]
*106 NIST0123\.uut2\.u4\.q\[2\]
*107 NIST0123\.uut2\.u4a\.q\[0\]
*108 NIST0123\.uut2\.u4a\.q\[1\]
*109 NIST0123\.uut2\.u4a\.q\[2\]
*110 NIST0123\.uut2\.u4a\.q\[3\]
*111 NIST0123\.uut2\.u5\.q
*112 NIST0123\.uut2\.u5a\.q
*113 NIST0123\.uut2\.u8\.q\[0\]
*114 NIST0123\.uut2\.u8\.q\[1\]
*115 NIST0123\.uut2\.u8\.q\[2\]
*116 NIST0123\.uut2\.u8\.q\[3\]
*117 NIST0123\.uut2\.u8\.q\[4\]
*118 NIST0123\.uut2\.u8\.q\[5\]
*119 NIST0123\.uut2\.u8\.q\[6\]
*120 NIST0123\.uut2\.u9\.q
*121 NIST0123\.uut3\.Vobs\[0\]
*122 NIST0123\.uut3\.Vobs\[1\]
*123 NIST0123\.uut3\.Vobs\[2\]
*124 NIST0123\.uut3\.Vobs\[3\]
*125 NIST0123\.uut3\.Vobs\[4\]
*126 NIST0123\.uut3\.Vobs\[5\]
*127 NIST0123\.uut3\.Vobs\[6\]
*128 NIST0123\.uut3\.cout1
*129 NIST0123\.uut3\.cout2
*130 NIST0123\.uut3\.epsilon\[0\]
*131 NIST0123\.uut3\.epsilon\[1\]
*132 NIST0123\.uut3\.epsilon\[2\]
*133 NIST0123\.uut3\.epsilon\[3\]
*134 NIST0123\.uut3\.epsilon\[4\]
*135 NIST0123\.uut3\.epsilon\[5\]
*136 NIST0123\.uut3\.epsilon\[6\]
*137 NIST0123\.uut3\.epsilon\[7\]
*138 NIST0123\.uut3\.epsilon_counter\.rstn
*139 NIST0123\.uut3\.invalid_blks\[0\]
*140 NIST0123\.uut3\.invalid_blks\[1\]
*141 NIST0123\.uut3\.invalid_blks\[2\]
*142 NIST0123\.uut3\.reset2
*143 NIST0123\.uut3\.rk
*144 NIST0123\.uut3\.u5\.q\[0\]
*145 NIST0123\.uut3\.u5\.q\[1\]
*146 NIST0123\.uut3\.u5\.q\[2\]
*147 NIST0123\.uut3\.u5\.q\[3\]
*148 NIST0123\.uut3\.u5\.q\[4\]
*149 NIST0123\.uut3\.u5\.q\[5\]
*150 NIST0123\.uut3\.u5\.q\[6\]
*151 NIST0123\.uut3\.u6\.q
*152 NIST0123\.uut3\.u8\.q\[0\]
*153 NIST0123\.uut3\.u8\.q\[1\]
*154 NIST0123\.uut3\.u8\.q\[2\]
*155 NIST0123\.uut3\.u8\.q\[3\]
*156 NIST0123\.uut3\.u8\.q\[4\]
*157 NIST0123\.uut3\.u8\.q\[5\]
*158 NIST0123\.uut3\.u8\.q\[6\]
*159 NIST0123\.uut3\.u9\.q
*160 NIST0123\.uut4\.Blk\[0\]
*161 NIST0123\.uut4\.Blk\[1\]
*162 NIST0123\.uut4\.Blk\[2\]
*163 NIST0123\.uut4\.Blk\[3\]
*164 NIST0123\.uut4\.Blk\[4\]
*165 NIST0123\.uut4\.Blk\[5\]
*166 NIST0123\.uut4\.Blk\[6\]
*167 NIST0123\.uut4\.Blk\[7\]
*168 NIST0123\.uut4\.cout1
*169 NIST0123\.uut4\.cout1a
*170 NIST0123\.uut4\.cout2
*171 NIST0123\.uut4\.invalid_blks\[0\]
*172 NIST0123\.uut4\.invalid_blks\[1\]
*173 NIST0123\.uut4\.invalid_blks\[2\]
*174 NIST0123\.uut4\.reset1
*175 NIST0123\.uut4\.reset1a
*176 NIST0123\.uut4\.reset2
*177 NIST0123\.uut4\.squared\[0\]\.vi_counter\.q\[0\]
*178 NIST0123\.uut4\.squared\[0\]\.vi_counter\.q\[1\]
*179 NIST0123\.uut4\.squared\[0\]\.vi_counter\.q\[2\]
*180 NIST0123\.uut4\.squared\[0\]\.vi_counter\.q\[3\]
*181 NIST0123\.uut4\.squared\[0\]\.vi_counter\.q\[4\]
*182 NIST0123\.uut4\.squared\[1\]\.vi_counter\.q\[0\]
*183 NIST0123\.uut4\.squared\[1\]\.vi_counter\.q\[1\]
*184 NIST0123\.uut4\.squared\[1\]\.vi_counter\.q\[2\]
*185 NIST0123\.uut4\.squared\[1\]\.vi_counter\.q\[3\]
*186 NIST0123\.uut4\.squared\[1\]\.vi_counter\.q\[4\]
*187 NIST0123\.uut4\.squared\[2\]\.vi_counter\.q\[0\]
*188 NIST0123\.uut4\.squared\[2\]\.vi_counter\.q\[1\]
*189 NIST0123\.uut4\.squared\[2\]\.vi_counter\.q\[2\]
*190 NIST0123\.uut4\.squared\[2\]\.vi_counter\.q\[3\]
*191 NIST0123\.uut4\.squared\[2\]\.vi_counter\.q\[4\]
*192 NIST0123\.uut4\.squared\[3\]\.vi_counter\.q\[0\]
*193 NIST0123\.uut4\.squared\[3\]\.vi_counter\.q\[1\]
*194 NIST0123\.uut4\.squared\[3\]\.vi_counter\.q\[2\]
*195 NIST0123\.uut4\.squared\[3\]\.vi_counter\.q\[3\]
*196 NIST0123\.uut4\.squared\[3\]\.vi_counter\.q\[4\]
*197 NIST0123\.uut4\.u10\.q\[0\]
*198 NIST0123\.uut4\.u10\.q\[1\]
*199 NIST0123\.uut4\.u10\.q\[2\]
*200 NIST0123\.uut4\.u10\.q\[3\]
*201 NIST0123\.uut4\.u10\.q\[4\]
*202 NIST0123\.uut4\.u10\.q\[5\]
*203 NIST0123\.uut4\.u10\.q\[6\]
*204 NIST0123\.uut4\.u11\.q
*205 NIST0123\.uut4\.u6a\.q\[0\]
*206 NIST0123\.uut4\.u6a\.q\[1\]
*207 NIST0123\.uut4\.u6a\.q\[2\]
*208 NIST0123\.uut4\.u6b\.q\[0\]
*209 NIST0123\.uut4\.u6b\.q\[1\]
*210 NIST0123\.uut4\.u6b\.q\[2\]
*211 NIST0123\.uut4\.u6b\.q\[3\]
*212 NIST0123\.uut4\.u7a\.q
*213 NIST0123\.uut4\.u7b\.q
*214 _0000_
*215 _0001_
*216 _0002_
*217 _0003_
*218 _0004_
*219 _0005_
*220 _0006_
*221 _0007_
*222 _0008_
*223 _0009_
*224 _0010_
*225 _0011_
*226 _0012_
*227 _0013_
*228 _0014_
*229 _0015_
*230 _0016_
*231 _0017_
*232 _0018_
*233 _0019_
*234 _0020_
*235 _0021_
*236 _0023_
*237 _0024_
*238 _0025_
*239 _0026_
*240 _0027_
*241 _0028_
*242 _0029_
*243 _0030_
*244 _0031_
*245 _0032_
*246 _0033_
*247 _0034_
*248 _0035_
*249 _0036_
*250 _0037_
*251 _0038_
*252 _0039_
*253 _0040_
*254 _0041_
*255 _0042_
*256 _0043_
*257 _0044_
*258 _0045_
*259 _0046_
*260 _0047_
*261 _0048_
*262 _0049_
*263 _0050_
*264 _0051_
*265 _0052_
*266 _0053_
*267 _0054_
*268 _0055_
*269 _0056_
*270 _0057_
*271 _0058_
*272 _0059_
*273 _0060_
*274 _0061_
*275 _0062_
*276 _0063_
*277 _0064_
*278 _0065_
*279 _0066_
*280 _0067_
*281 _0068_
*282 _0069_
*283 _0070_
*284 _0071_
*285 _0072_
*286 _0073_
*287 _0074_
*288 _0075_
*289 _0076_
*290 _0077_
*291 _0078_
*292 _0079_
*293 _0080_
*294 _0081_
*295 _0082_
*296 _0083_
*297 _0084_
*298 _0085_
*299 _0086_
*300 _0087_
*301 _0088_
*302 _0089_
*303 _0090_
*304 _0091_
*305 _0092_
*306 _0093_
*307 _0094_
*308 _0095_
*309 _0096_
*310 _0097_
*311 _0098_
*312 _0099_
*313 _0100_
*314 _0101_
*315 _0102_
*316 _0103_
*317 _0104_
*318 _0105_
*319 _0106_
*320 _0107_
*321 _0108_
*322 _0109_
*323 _0110_
*324 _0111_
*325 _0112_
*326 _0113_
*327 _0114_
*328 _0115_
*329 _0116_
*330 _0117_
*331 _0118_
*332 _0119_
*333 _0120_
*334 _0121_
*335 _0122_
*336 _0123_
*337 _0124_
*338 _0125_
*339 _0126_
*340 _0127_
*341 _0128_
*342 _0129_
*343 _0130_
*344 _0131_
*345 _0132_
*346 _0133_
*347 _0134_
*348 _0135_
*349 _0136_
*350 _0137_
*351 _0138_
*352 _0139_
*353 _0140_
*354 _0141_
*355 _0142_
*356 _0143_
*357 _0144_
*358 _0145_
*359 _0146_
*360 _0147_
*361 _0148_
*362 _0149_
*363 _0150_
*364 _0151_
*365 _0152_
*366 _0153_
*367 _0154_
*368 _0155_
*369 _0156_
*370 _0157_
*371 _0158_
*372 _0159_
*373 _0160_
*374 _0161_
*375 _0162_
*376 _0163_
*377 _0164_
*378 _0165_
*379 _0166_
*380 _0167_
*381 _0168_
*382 _0169_
*383 _0170_
*384 _0171_
*385 _0172_
*386 _0173_
*387 _0174_
*388 _0175_
*389 _0176_
*390 _0177_
*391 _0178_
*392 _0179_
*393 _0180_
*394 _0181_
*395 _0182_
*396 _0183_
*397 _0184_
*398 _0185_
*399 _0186_
*400 _0187_
*401 _0188_
*402 _0189_
*403 _0190_
*404 _0191_
*405 _0192_
*406 _0193_
*407 _0194_
*408 _0195_
*409 _0196_
*410 _0197_
*411 _0198_
*412 _0199_
*413 _0200_
*414 _0201_
*415 _0202_
*416 _0203_
*417 _0204_
*418 _0205_
*419 _0206_
*420 _0207_
*421 _0208_
*422 _0209_
*423 _0210_
*424 _0211_
*425 _0212_
*426 _0213_
*427 _0214_
*428 _0215_
*429 _0216_
*430 _0217_
*431 _0218_
*432 _0219_
*433 _0220_
*434 _0221_
*435 _0222_
*436 _0223_
*437 _0224_
*438 _0225_
*439 _0226_
*440 _0227_
*441 _0228_
*442 _0229_
*443 _0230_
*444 _0231_
*445 _0232_
*446 _0233_
*447 _0234_
*448 _0235_
*449 _0236_
*450 _0237_
*451 _0238_
*452 _0239_
*453 _0240_
*454 _0241_
*455 _0242_
*456 _0243_
*457 _0244_
*458 _0245_
*459 _0246_
*460 _0247_
*461 _0248_
*462 _0249_
*463 _0250_
*464 _0251_
*465 _0252_
*466 _0253_
*467 _0254_
*468 _0255_
*469 _0256_
*470 _0257_
*471 _0258_
*472 _0259_
*473 _0260_
*474 _0261_
*475 _0262_
*476 _0263_
*477 _0264_
*478 _0265_
*479 _0266_
*480 _0267_
*481 _0268_
*482 _0269_
*483 _0270_
*484 _0271_
*485 _0272_
*486 _0273_
*487 _0274_
*488 _0275_
*489 _0276_
*490 _0277_
*491 _0278_
*492 _0279_
*493 _0280_
*494 _0281_
*495 _0282_
*496 _0283_
*497 _0284_
*498 _0285_
*499 _0286_
*500 _0287_
*501 _0288_
*502 _0289_
*503 _0290_
*504 _0291_
*505 _0292_
*506 _0293_
*507 _0294_
*508 _0295_
*509 _0296_
*510 _0297_
*511 _0298_
*512 _0299_
*513 _0300_
*514 _0301_
*515 _0302_
*516 _0303_
*517 _0304_
*518 _0305_
*519 _0306_
*520 _0307_
*521 _0308_
*522 _0309_
*523 _0310_
*524 _0311_
*525 _0312_
*526 _0313_
*527 _0314_
*528 _0315_
*529 _0316_
*530 _0317_
*531 _0318_
*532 _0319_
*533 _0320_
*534 _0321_
*535 _0322_
*536 _0323_
*537 _0324_
*538 _0325_
*539 _0326_
*540 _0327_
*541 _0328_
*542 _0329_
*543 _0330_
*544 _0331_
*545 _0332_
*546 _0333_
*547 _0334_
*548 _0335_
*549 _0336_
*550 _0337_
*551 _0338_
*552 _0339_
*553 _0340_
*554 _0341_
*555 _0342_
*556 _0343_
*557 _0344_
*558 _0345_
*559 _0346_
*560 _0347_
*561 _0348_
*562 _0349_
*563 _0350_
*564 _0351_
*565 _0352_
*566 _0353_
*567 _0354_
*568 _0355_
*569 _0356_
*570 _0357_
*571 _0358_
*572 _0359_
*573 _0360_
*574 _0361_
*575 _0362_
*576 _0363_
*577 _0364_
*578 _0365_
*579 _0366_
*580 _0367_
*581 _0368_
*582 _0369_
*583 _0370_
*584 _0371_
*585 _0372_
*586 _0373_
*587 _0374_
*588 _0375_
*589 _0376_
*590 _0377_
*591 _0378_
*592 _0379_
*593 _0380_
*594 _0381_
*595 _0382_
*596 _0383_
*597 _0384_
*598 _0385_
*599 _0386_
*600 _0387_
*601 _0388_
*602 _0389_
*603 _0390_
*604 _0391_
*605 _0392_
*606 _0393_
*607 _0394_
*608 _0395_
*609 _0396_
*610 _0397_
*611 _0398_
*612 _0399_
*613 _0400_
*614 _0401_
*615 _0402_
*616 _0403_
*617 _0404_
*618 _0405_
*619 _0406_
*620 _0407_
*621 _0408_
*622 _0409_
*623 _0410_
*624 _0411_
*625 _0412_
*626 _0413_
*627 _0414_
*628 _0415_
*629 _0416_
*630 _0417_
*631 _0418_
*632 _0419_
*633 _0420_
*634 _0421_
*635 _0422_
*636 _0423_
*637 _0424_
*638 _0425_
*639 _0426_
*640 _0427_
*641 _0428_
*642 _0429_
*643 _0430_
*644 _0431_
*645 _0432_
*646 _0433_
*647 _0434_
*648 _0435_
*649 _0436_
*650 _0437_
*651 _0438_
*652 _0439_
*653 _0440_
*654 _0441_
*655 _0442_
*656 _0443_
*657 _0444_
*658 _0445_
*659 _0446_
*660 _0447_
*661 _0448_
*662 _0449_
*663 _0450_
*664 _0451_
*665 _0452_
*666 _0453_
*667 _0454_
*668 _0455_
*669 _0456_
*670 _0457_
*671 _0458_
*672 _0459_
*673 _0460_
*674 _0461_
*675 _0462_
*676 _0463_
*677 _0464_
*678 _0465_
*679 _0466_
*680 _0467_
*681 _0468_
*682 _0469_
*683 _0470_
*684 _0471_
*685 _0472_
*686 _0473_
*687 _0474_
*688 _0475_
*689 _0476_
*690 _0477_
*691 _0478_
*692 _0479_
*693 _0480_
*694 _0481_
*695 _0482_
*696 _0483_
*697 _0484_
*698 _0485_
*699 _0486_
*700 _0487_
*701 _0488_
*702 _0489_
*703 _0490_
*704 _0491_
*705 _0492_
*706 _0493_
*707 _0494_
*708 _0495_
*709 _0496_
*710 _0497_
*711 _0498_
*712 _0499_
*713 _0500_
*714 _0501_
*715 _0502_
*716 _0503_
*717 _0504_
*718 _0505_
*719 _0506_
*720 _0507_
*721 _0508_
*722 _0509_
*723 _0510_
*724 _0511_
*725 _0512_
*726 _0513_
*727 _0514_
*728 _0515_
*729 _0516_
*730 _0517_
*731 _0518_
*732 _0519_
*733 _0520_
*734 _0521_
*735 _0522_
*736 _0523_
*737 _0524_
*738 _0525_
*739 _0526_
*740 _0527_
*741 _0528_
*742 _0529_
*743 _0530_
*744 _0531_
*745 _0532_
*746 _0533_
*747 _0534_
*748 _0535_
*749 _0536_
*750 _0537_
*751 _0538_
*752 _0539_
*753 _0540_
*754 _0541_
*755 _0542_
*756 _0543_
*757 _0544_
*758 _0545_
*759 _0546_
*760 _0547_
*761 _0548_
*762 _0549_
*763 _0550_
*764 _0551_
*765 _0552_
*766 _0553_
*767 _0554_
*768 _0555_
*769 _0556_
*770 _0557_
*771 _0558_
*772 _0559_
*773 _0560_
*774 _0561_
*775 _0562_
*776 _0563_
*777 _0564_
*778 _0565_
*779 _0566_
*780 _0567_
*781 _0568_
*782 _0569_
*783 _0570_
*784 _0571_
*785 _0572_
*786 _0573_
*787 _0574_
*788 _0575_
*789 _0576_
*790 _0577_
*791 _0578_
*792 _0579_
*793 _0580_
*794 _0581_
*795 _0582_
*796 _0583_
*797 _0584_
*798 _0585_
*799 _0586_
*800 _0587_
*801 _0588_
*802 _0589_
*803 _0590_
*804 _0591_
*805 _0592_
*806 _0593_
*807 _0594_
*808 _0595_
*809 _0596_
*810 _0597_
*811 _0598_
*812 _0599_
*813 _0600_
*814 _0601_
*815 _0602_
*816 _0603_
*817 _0604_
*818 _0605_
*819 _0606_
*820 _0607_
*821 _0608_
*822 _0609_
*823 _0610_
*824 _0611_
*825 _0612_
*826 _0613_
*827 _0614_
*828 _0615_
*829 _0616_
*830 _0617_
*831 _0618_
*832 _0619_
*833 _0620_
*834 _0621_
*835 _0622_
*836 _0623_
*837 _0624_
*838 _0625_
*839 _0626_
*840 _0627_
*841 _0628_
*842 _0629_
*843 _0630_
*844 _0631_
*845 _0632_
*846 _0633_
*847 _0634_
*848 _0635_
*849 _0636_
*850 _0637_
*851 _0638_
*852 _0639_
*853 _0640_
*854 _0641_
*855 _0642_
*856 _0643_
*857 _0644_
*858 _0645_
*859 _0646_
*860 _0647_
*861 _0648_
*862 _0649_
*863 _0650_
*864 _0651_
*865 _0652_
*866 _0653_
*867 _0654_
*868 _0655_
*869 _0656_
*870 _0657_
*871 _0658_
*872 _0659_
*873 _0660_
*874 _0661_
*875 _0662_
*876 _0663_
*877 _0664_
*878 _0665_
*879 _0666_
*880 _0667_
*881 _0668_
*882 _0669_
*883 _0670_
*884 _0671_
*885 _0672_
*886 _0673_
*887 _0674_
*888 _0675_
*889 _0676_
*890 _0677_
*891 _0678_
*892 _0679_
*893 _0680_
*894 _0681_
*895 _0682_
*896 _0683_
*897 _0684_
*898 _0685_
*899 _0686_
*900 _0687_
*901 _0688_
*902 _0689_
*903 _0690_
*904 _0691_
*905 _0692_
*906 _0693_
*907 _0694_
*908 _0695_
*909 _0696_
*910 _0697_
*911 _0698_
*912 _0699_
*913 _0700_
*914 _0701_
*915 _0702_
*916 _0703_
*917 _0704_
*918 _0705_
*919 _0706_
*920 _0707_
*921 _0708_
*922 _0709_
*923 _0710_
*924 _0711_
*925 _0712_
*926 _0713_
*927 _0714_
*928 _0715_
*929 _0716_
*930 _0717_
*931 _0718_
*932 _0719_
*933 _0720_
*934 _0721_
*935 _0722_
*936 _0723_
*937 _0724_
*938 _0725_
*939 _0726_
*940 _0727_
*941 _0728_
*942 _0729_
*943 _0730_
*944 _0731_
*945 _0732_
*946 _0733_
*947 _0734_
*948 _0735_
*949 _0736_
*950 _0737_
*951 _0738_
*952 _0739_
*953 _0740_
*954 _0741_
*955 _0742_
*956 _0743_
*957 _0744_
*958 _0745_
*959 _0746_
*960 _0747_
*961 _0748_
*962 _0749_
*963 _0750_
*964 _0751_
*965 _0752_
*966 _0753_
*967 _0754_
*968 _0755_
*969 _0756_
*970 _0757_
*971 _0758_
*972 _0759_
*973 _0760_
*974 _0761_
*975 _0762_
*976 _0763_
*977 _0764_
*978 _0765_
*979 _0766_
*980 _0767_
*981 _0768_
*982 _0769_
*983 _0770_
*984 _0771_
*985 _0772_
*986 _0773_
*987 _0774_
*988 _0775_
*989 _0776_
*990 _0777_
*991 _0778_
*992 _0779_
*993 _0780_
*994 _0781_
*995 _0782_
*996 _0783_
*997 _0784_
*998 _0785_
*999 _0786_
*1000 _0787_
*1001 _0788_
*1002 _0789_
*1003 _0790_
*1004 _0791_
*1005 _0792_
*1006 _0793_
*1007 _0794_
*1008 _0795_
*1009 _0796_
*1010 _0797_
*1011 _0798_
*1012 _0799_
*1013 _0800_
*1014 _0801_
*1015 _0802_
*1016 _0803_
*1017 _0804_
*1018 _0805_
*1019 _0806_
*1020 _0807_
*1021 _0808_
*1022 _0809_
*1023 _0810_
*1024 _0811_
*1025 _0812_
*1026 _0813_
*1027 _0814_
*1028 _0815_
*1029 _0816_
*1030 _0817_
*1031 _0818_
*1032 _0819_
*1033 _0820_
*1034 _0821_
*1035 _0822_
*1036 _0823_
*1037 _0824_
*1038 _0825_
*1039 _0826_
*1040 _0827_
*1041 _0828_
*1042 _0829_
*1043 _0830_
*1044 _0831_
*1045 _0832_
*1046 _0833_
*1047 _0834_
*1048 _0835_
*1049 _0836_
*1050 _0837_
*1051 _0838_
*1052 _0839_
*1053 _0840_
*1054 _0841_
*1055 _0842_
*1056 _0843_
*1057 _0844_
*1058 _0845_
*1059 _0846_
*1060 _0847_
*1061 _0848_
*1062 _0849_
*1063 _0850_
*1064 _0851_
*1065 _0852_
*1066 _0853_
*1067 _0854_
*1068 _0855_
*1069 _0856_
*1070 _0857_
*1071 _0858_
*1072 _0859_
*1073 _0860_
*1074 _0861_
*1075 _0862_
*1076 _0863_
*1077 _0864_
*1078 _0865_
*1079 _0866_
*1080 _0867_
*1081 _0868_
*1082 _0869_
*1083 _0870_
*1084 _0871_
*1085 _0872_
*1086 _0873_
*1087 _0874_
*1088 _0875_
*1089 _0876_
*1090 _0877_
*1091 _0878_
*1092 _0879_
*1093 _0880_
*1094 _0881_
*1095 _0882_
*1096 _0883_
*1097 _0884_
*1098 _0885_
*1099 _0886_
*1100 _0887_
*1101 _0888_
*1102 _0889_
*1103 _0890_
*1104 _0891_
*1105 _0892_
*1106 _0893_
*1107 _0894_
*1108 _0895_
*1109 _0896_
*1110 _0897_
*1111 _0898_
*1112 _0899_
*1113 _0900_
*1114 _0901_
*1115 _0902_
*1116 _0903_
*1117 _0904_
*1118 _0905_
*1119 _0906_
*1120 _0907_
*1121 _0908_
*1122 _0909_
*1123 _0910_
*1124 _0911_
*1125 alfsr0\.SYNTHESIZED_WIRE_3
*1126 alfsr0\.SYNTHESIZED_WIRE_4
*1127 alfsr0\.b2v_inst12\.A
*1128 alfsr0\.b2v_inst12\.Y
*1129 alfsr0\.b2v_inst5\.Y
*1130 alfsr0\.b2v_insta0\.A
*1131 alfsr0\.b2v_insta0\.Y
*1132 alfsr0\.b2v_insta1\.Y
*1133 alfsr0\.b2v_insta2\.A
*1134 alfsr0\.b2v_insta2\.Y
*1135 alfsr0\.b2v_insta3\.Y
*1136 alfsr0\.b2v_insta4\.A
*1137 alfsr0\.b2v_insta4\.Y
*1138 alfsr0\.b2v_insta5\.Y
*1139 alfsr0\.b2v_ix0\.Y
*1140 alfsr0\.b2v_ix1\.A0
*1141 alfsr0\.b2v_ix1\.A1
*1142 alfsr0\.b2v_ix1\.Y
*1143 alfsr0\.b2v_ix2\.A0
*1144 alfsr0\.b2v_ix2\.Y
*1145 alfsr0\.b2v_ix200\.Y
*1146 alfsr0\.b2v_ix203\.Y
*1147 alfsr0\.b2v_ix204\.A
*1148 alfsr0\.b2v_ix205\.A
*1149 alfsr0\.b2v_ix205\.Y
*1150 alfsr0\.b2v_ix5\.A0
*1151 alfsr0\.b2v_ix5\.A1
*1152 alfsr0\.b2v_reg_lfsr_1\.Q
*1153 alfsr0\.b2v_reg_lfsr_10\.D
*1154 alfsr0\.b2v_reg_lfsr_10\.Q
*1155 alfsr0\.b2v_reg_lfsr_2\.Q
*1156 alfsr0\.b2v_reg_lfsr_3\.Q
*1157 alfsr0\.b2v_reg_lfsr_5\.Q
*1158 alfsr0\.b2v_reg_lfsr_6\.Q
*1159 alfsr0\.b2v_reg_lfsr_8\.Q
*1160 alfsr0\.delay_line_0\.b2v_ix10\.A1
*1161 alfsr0\.delay_line_0\.b2v_ix10\.Y
*1162 alfsr0\.delay_line_0\.b2v_ix101\.Y
*1163 alfsr0\.delay_line_0\.b2v_ix102\.Y
*1164 alfsr0\.delay_line_0\.b2v_ix103\.Y
*1165 alfsr0\.delay_line_0\.b2v_ix104\.Y
*1166 alfsr0\.delay_line_0\.b2v_ix105\.Y
*1167 alfsr0\.delay_line_0\.b2v_ix106\.Y
*1168 alfsr0\.delay_line_0\.b2v_ix11\.Y
*1169 alfsr0\.delay_line_0\.b2v_ix12\.Y
*1170 alfsr0\.delay_line_0\.b2v_ix13\.Y
*1171 alfsr0\.delay_line_0\.b2v_ix14\.Y
*1172 alfsr0\.delay_line_0\.b2v_ix15\.Y
*1173 alfsr0\.delay_line_1\.b2v_ix10\.A1
*1174 alfsr0\.delay_line_1\.b2v_ix10\.Y
*1175 alfsr0\.delay_line_1\.b2v_ix101\.Y
*1176 alfsr0\.delay_line_1\.b2v_ix102\.Y
*1177 alfsr0\.delay_line_1\.b2v_ix103\.Y
*1178 alfsr0\.delay_line_1\.b2v_ix104\.Y
*1179 alfsr0\.delay_line_1\.b2v_ix105\.Y
*1180 alfsr0\.delay_line_1\.b2v_ix106\.Y
*1181 alfsr0\.delay_line_1\.b2v_ix11\.Y
*1182 alfsr0\.delay_line_1\.b2v_ix12\.Y
*1183 alfsr0\.delay_line_1\.b2v_ix13\.Y
*1184 alfsr0\.delay_line_1\.b2v_ix14\.Y
*1185 alfsr0\.delay_line_1\.b2v_ix15\.Y
*1186 alfsr0\.delay_line_2\.b2v_ix10\.A1
*1187 alfsr0\.delay_line_2\.b2v_ix10\.Y
*1188 alfsr0\.delay_line_2\.b2v_ix101\.Y
*1189 alfsr0\.delay_line_2\.b2v_ix102\.Y
*1190 alfsr0\.delay_line_2\.b2v_ix103\.Y
*1191 alfsr0\.delay_line_2\.b2v_ix104\.Y
*1192 alfsr0\.delay_line_2\.b2v_ix105\.Y
*1193 alfsr0\.delay_line_2\.b2v_ix106\.Y
*1194 alfsr0\.delay_line_2\.b2v_ix11\.Y
*1195 alfsr0\.delay_line_2\.b2v_ix12\.Y
*1196 alfsr0\.delay_line_2\.b2v_ix13\.Y
*1197 alfsr0\.delay_line_2\.b2v_ix14\.Y
*1198 alfsr0\.delay_line_2\.b2v_ix15\.Y
*1199 alfsr0\.delay_line_3\.b2v_ix10\.A1
*1200 alfsr0\.delay_line_3\.b2v_ix10\.Y
*1201 alfsr0\.delay_line_3\.b2v_ix101\.Y
*1202 alfsr0\.delay_line_3\.b2v_ix102\.Y
*1203 alfsr0\.delay_line_3\.b2v_ix103\.Y
*1204 alfsr0\.delay_line_3\.b2v_ix104\.Y
*1205 alfsr0\.delay_line_3\.b2v_ix105\.Y
*1206 alfsr0\.delay_line_3\.b2v_ix106\.Y
*1207 alfsr0\.delay_line_3\.b2v_ix11\.Y
*1208 alfsr0\.delay_line_3\.b2v_ix12\.Y
*1209 alfsr0\.delay_line_3\.b2v_ix13\.Y
*1210 alfsr0\.delay_line_3\.b2v_ix14\.Y
*1211 alfsr0\.delay_line_3\.b2v_ix15\.Y
*1212 clknet_0_clk
*1213 clknet_4_0_0_clk
*1214 clknet_4_10_0_clk
*1215 clknet_4_11_0_clk
*1216 clknet_4_12_0_clk
*1217 clknet_4_13_0_clk
*1218 clknet_4_14_0_clk
*1219 clknet_4_15_0_clk
*1220 clknet_4_1_0_clk
*1221 clknet_4_2_0_clk
*1222 clknet_4_3_0_clk
*1223 clknet_4_4_0_clk
*1224 clknet_4_5_0_clk
*1225 clknet_4_6_0_clk
*1226 clknet_4_7_0_clk
*1227 clknet_4_8_0_clk
*1228 clknet_4_9_0_clk
*1229 global_error_n
*1230 net1
*1231 net10
*1232 net100
*1233 net101
*1234 net102
*1235 net103
*1236 net104
*1237 net105
*1238 net106
*1239 net107
*1240 net108
*1241 net109
*1242 net11
*1243 net110
*1244 net111
*1245 net112
*1246 net113
*1247 net114
*1248 net115
*1249 net116
*1250 net117
*1251 net118
*1252 net119
*1253 net12
*1254 net120
*1255 net121
*1256 net122
*1257 net123
*1258 net124
*1259 net125
*1260 net126
*1261 net127
*1262 net128
*1263 net129
*1264 net13
*1265 net130
*1266 net131
*1267 net132
*1268 net133
*1269 net134
*1270 net135
*1271 net136
*1272 net137
*1273 net138
*1274 net139
*1275 net14
*1276 net140
*1277 net141
*1278 net142
*1279 net143
*1280 net144
*1281 net145
*1282 net146
*1283 net147
*1284 net148
*1285 net149
*1286 net15
*1287 net150
*1288 net151
*1289 net152
*1290 net153
*1291 net154
*1292 net155
*1293 net156
*1294 net157
*1295 net158
*1296 net16
*1297 net17
*1298 net18
*1299 net19
*1300 net2
*1301 net20
*1302 net21
*1303 net3
*1304 net34
*1305 net35
*1306 net36
*1307 net37
*1308 net38
*1309 net39
*1310 net4
*1311 net40
*1312 net41
*1313 net42
*1314 net43
*1315 net44
*1316 net45
*1317 net46
*1318 net47
*1319 net48
*1320 net49
*1321 net5
*1322 net50
*1323 net51
*1324 net52
*1325 net53
*1326 net54
*1327 net55
*1328 net56
*1329 net57
*1330 net58
*1331 net59
*1332 net6
*1333 net60
*1334 net61
*1335 net62
*1336 net63
*1337 net64
*1338 net65
*1339 net66
*1340 net67
*1341 net68
*1342 net69
*1343 net7
*1344 net70
*1345 net71
*1346 net72
*1347 net73
*1348 net74
*1349 net75
*1350 net76
*1351 net77
*1352 net78
*1353 net79
*1354 net8
*1355 net80
*1356 net81
*1357 net82
*1358 net83
*1359 net84
*1360 net85
*1361 net86
*1362 net87
*1363 net88
*1364 net89
*1365 net9
*1366 net90
*1367 net91
*1368 net92
*1369 net93
*1370 net94
*1371 net95
*1372 net96
*1373 net97
*1374 net98
*1375 net99
*1376 FILLER_0_0_109
*1377 FILLER_0_0_113
*1378 FILLER_0_0_125
*1379 FILLER_0_0_137
*1380 FILLER_0_0_141
*1381 FILLER_0_0_15
*1382 FILLER_0_0_153
*1383 FILLER_0_0_165
*1384 FILLER_0_0_169
*1385 FILLER_0_0_181
*1386 FILLER_0_0_193
*1387 FILLER_0_0_197
*1388 FILLER_0_0_209
*1389 FILLER_0_0_221
*1390 FILLER_0_0_225
*1391 FILLER_0_0_237
*1392 FILLER_0_0_249
*1393 FILLER_0_0_253
*1394 FILLER_0_0_265
*1395 FILLER_0_0_27
*1396 FILLER_0_0_277
*1397 FILLER_0_0_281
*1398 FILLER_0_0_29
*1399 FILLER_0_0_293
*1400 FILLER_0_0_3
*1401 FILLER_0_0_305
*1402 FILLER_0_0_309
*1403 FILLER_0_0_321
*1404 FILLER_0_0_333
*1405 FILLER_0_0_41
*1406 FILLER_0_0_53
*1407 FILLER_0_0_57
*1408 FILLER_0_0_69
*1409 FILLER_0_0_81
*1410 FILLER_0_0_85
*1411 FILLER_0_0_97
*1412 FILLER_0_10_109
*1413 FILLER_0_10_121
*1414 FILLER_0_10_133
*1415 FILLER_0_10_139
*1416 FILLER_0_10_141
*1417 FILLER_0_10_15
*1418 FILLER_0_10_153
*1419 FILLER_0_10_165
*1420 FILLER_0_10_177
*1421 FILLER_0_10_189
*1422 FILLER_0_10_195
*1423 FILLER_0_10_197
*1424 FILLER_0_10_209
*1425 FILLER_0_10_221
*1426 FILLER_0_10_233
*1427 FILLER_0_10_245
*1428 FILLER_0_10_251
*1429 FILLER_0_10_253
*1430 FILLER_0_10_265
*1431 FILLER_0_10_27
*1432 FILLER_0_10_277
*1433 FILLER_0_10_289
*1434 FILLER_0_10_29
*1435 FILLER_0_10_3
*1436 FILLER_0_10_301
*1437 FILLER_0_10_307
*1438 FILLER_0_10_309
*1439 FILLER_0_10_321
*1440 FILLER_0_10_333
*1441 FILLER_0_10_41
*1442 FILLER_0_10_53
*1443 FILLER_0_10_65
*1444 FILLER_0_10_77
*1445 FILLER_0_10_83
*1446 FILLER_0_10_85
*1447 FILLER_0_10_97
*1448 FILLER_0_11_105
*1449 FILLER_0_11_111
*1450 FILLER_0_11_113
*1451 FILLER_0_11_125
*1452 FILLER_0_11_137
*1453 FILLER_0_11_149
*1454 FILLER_0_11_15
*1455 FILLER_0_11_161
*1456 FILLER_0_11_167
*1457 FILLER_0_11_169
*1458 FILLER_0_11_181
*1459 FILLER_0_11_193
*1460 FILLER_0_11_205
*1461 FILLER_0_11_217
*1462 FILLER_0_11_223
*1463 FILLER_0_11_225
*1464 FILLER_0_11_237
*1465 FILLER_0_11_249
*1466 FILLER_0_11_261
*1467 FILLER_0_11_27
*1468 FILLER_0_11_273
*1469 FILLER_0_11_279
*1470 FILLER_0_11_281
*1471 FILLER_0_11_293
*1472 FILLER_0_11_3
*1473 FILLER_0_11_305
*1474 FILLER_0_11_317
*1475 FILLER_0_11_329
*1476 FILLER_0_11_39
*1477 FILLER_0_11_51
*1478 FILLER_0_11_55
*1479 FILLER_0_11_57
*1480 FILLER_0_11_69
*1481 FILLER_0_11_81
*1482 FILLER_0_11_93
*1483 FILLER_0_12_109
*1484 FILLER_0_12_121
*1485 FILLER_0_12_133
*1486 FILLER_0_12_139
*1487 FILLER_0_12_141
*1488 FILLER_0_12_15
*1489 FILLER_0_12_153
*1490 FILLER_0_12_165
*1491 FILLER_0_12_177
*1492 FILLER_0_12_189
*1493 FILLER_0_12_195
*1494 FILLER_0_12_197
*1495 FILLER_0_12_209
*1496 FILLER_0_12_221
*1497 FILLER_0_12_233
*1498 FILLER_0_12_245
*1499 FILLER_0_12_251
*1500 FILLER_0_12_253
*1501 FILLER_0_12_265
*1502 FILLER_0_12_27
*1503 FILLER_0_12_277
*1504 FILLER_0_12_289
*1505 FILLER_0_12_29
*1506 FILLER_0_12_3
*1507 FILLER_0_12_301
*1508 FILLER_0_12_307
*1509 FILLER_0_12_309
*1510 FILLER_0_12_321
*1511 FILLER_0_12_333
*1512 FILLER_0_12_41
*1513 FILLER_0_12_53
*1514 FILLER_0_12_65
*1515 FILLER_0_12_77
*1516 FILLER_0_12_83
*1517 FILLER_0_12_85
*1518 FILLER_0_12_97
*1519 FILLER_0_13_105
*1520 FILLER_0_13_111
*1521 FILLER_0_13_113
*1522 FILLER_0_13_125
*1523 FILLER_0_13_137
*1524 FILLER_0_13_149
*1525 FILLER_0_13_15
*1526 FILLER_0_13_161
*1527 FILLER_0_13_167
*1528 FILLER_0_13_169
*1529 FILLER_0_13_181
*1530 FILLER_0_13_193
*1531 FILLER_0_13_205
*1532 FILLER_0_13_217
*1533 FILLER_0_13_223
*1534 FILLER_0_13_225
*1535 FILLER_0_13_237
*1536 FILLER_0_13_249
*1537 FILLER_0_13_261
*1538 FILLER_0_13_27
*1539 FILLER_0_13_273
*1540 FILLER_0_13_279
*1541 FILLER_0_13_281
*1542 FILLER_0_13_293
*1543 FILLER_0_13_3
*1544 FILLER_0_13_305
*1545 FILLER_0_13_317
*1546 FILLER_0_13_329
*1547 FILLER_0_13_39
*1548 FILLER_0_13_51
*1549 FILLER_0_13_55
*1550 FILLER_0_13_57
*1551 FILLER_0_13_69
*1552 FILLER_0_13_81
*1553 FILLER_0_13_93
*1554 FILLER_0_14_109
*1555 FILLER_0_14_121
*1556 FILLER_0_14_133
*1557 FILLER_0_14_139
*1558 FILLER_0_14_141
*1559 FILLER_0_14_15
*1560 FILLER_0_14_153
*1561 FILLER_0_14_165
*1562 FILLER_0_14_177
*1563 FILLER_0_14_189
*1564 FILLER_0_14_195
*1565 FILLER_0_14_197
*1566 FILLER_0_14_209
*1567 FILLER_0_14_221
*1568 FILLER_0_14_233
*1569 FILLER_0_14_245
*1570 FILLER_0_14_251
*1571 FILLER_0_14_253
*1572 FILLER_0_14_265
*1573 FILLER_0_14_27
*1574 FILLER_0_14_277
*1575 FILLER_0_14_289
*1576 FILLER_0_14_29
*1577 FILLER_0_14_3
*1578 FILLER_0_14_301
*1579 FILLER_0_14_307
*1580 FILLER_0_14_309
*1581 FILLER_0_14_321
*1582 FILLER_0_14_333
*1583 FILLER_0_14_41
*1584 FILLER_0_14_53
*1585 FILLER_0_14_65
*1586 FILLER_0_14_77
*1587 FILLER_0_14_83
*1588 FILLER_0_14_85
*1589 FILLER_0_14_97
*1590 FILLER_0_15_105
*1591 FILLER_0_15_111
*1592 FILLER_0_15_113
*1593 FILLER_0_15_125
*1594 FILLER_0_15_137
*1595 FILLER_0_15_149
*1596 FILLER_0_15_15
*1597 FILLER_0_15_161
*1598 FILLER_0_15_167
*1599 FILLER_0_15_169
*1600 FILLER_0_15_181
*1601 FILLER_0_15_193
*1602 FILLER_0_15_205
*1603 FILLER_0_15_217
*1604 FILLER_0_15_223
*1605 FILLER_0_15_225
*1606 FILLER_0_15_237
*1607 FILLER_0_15_249
*1608 FILLER_0_15_261
*1609 FILLER_0_15_27
*1610 FILLER_0_15_273
*1611 FILLER_0_15_279
*1612 FILLER_0_15_281
*1613 FILLER_0_15_293
*1614 FILLER_0_15_3
*1615 FILLER_0_15_305
*1616 FILLER_0_15_317
*1617 FILLER_0_15_329
*1618 FILLER_0_15_39
*1619 FILLER_0_15_51
*1620 FILLER_0_15_55
*1621 FILLER_0_15_57
*1622 FILLER_0_15_69
*1623 FILLER_0_15_81
*1624 FILLER_0_15_93
*1625 FILLER_0_16_109
*1626 FILLER_0_16_121
*1627 FILLER_0_16_133
*1628 FILLER_0_16_139
*1629 FILLER_0_16_141
*1630 FILLER_0_16_15
*1631 FILLER_0_16_153
*1632 FILLER_0_16_165
*1633 FILLER_0_16_177
*1634 FILLER_0_16_189
*1635 FILLER_0_16_195
*1636 FILLER_0_16_197
*1637 FILLER_0_16_209
*1638 FILLER_0_16_221
*1639 FILLER_0_16_233
*1640 FILLER_0_16_245
*1641 FILLER_0_16_251
*1642 FILLER_0_16_253
*1643 FILLER_0_16_265
*1644 FILLER_0_16_27
*1645 FILLER_0_16_277
*1646 FILLER_0_16_289
*1647 FILLER_0_16_29
*1648 FILLER_0_16_3
*1649 FILLER_0_16_301
*1650 FILLER_0_16_307
*1651 FILLER_0_16_309
*1652 FILLER_0_16_321
*1653 FILLER_0_16_333
*1654 FILLER_0_16_41
*1655 FILLER_0_16_53
*1656 FILLER_0_16_65
*1657 FILLER_0_16_77
*1658 FILLER_0_16_83
*1659 FILLER_0_16_85
*1660 FILLER_0_16_97
*1661 FILLER_0_17_105
*1662 FILLER_0_17_111
*1663 FILLER_0_17_113
*1664 FILLER_0_17_125
*1665 FILLER_0_17_137
*1666 FILLER_0_17_149
*1667 FILLER_0_17_15
*1668 FILLER_0_17_161
*1669 FILLER_0_17_167
*1670 FILLER_0_17_169
*1671 FILLER_0_17_181
*1672 FILLER_0_17_193
*1673 FILLER_0_17_205
*1674 FILLER_0_17_217
*1675 FILLER_0_17_223
*1676 FILLER_0_17_225
*1677 FILLER_0_17_237
*1678 FILLER_0_17_249
*1679 FILLER_0_17_261
*1680 FILLER_0_17_27
*1681 FILLER_0_17_273
*1682 FILLER_0_17_279
*1683 FILLER_0_17_281
*1684 FILLER_0_17_293
*1685 FILLER_0_17_3
*1686 FILLER_0_17_305
*1687 FILLER_0_17_317
*1688 FILLER_0_17_329
*1689 FILLER_0_17_39
*1690 FILLER_0_17_51
*1691 FILLER_0_17_55
*1692 FILLER_0_17_57
*1693 FILLER_0_17_69
*1694 FILLER_0_17_81
*1695 FILLER_0_17_93
*1696 FILLER_0_18_109
*1697 FILLER_0_18_121
*1698 FILLER_0_18_133
*1699 FILLER_0_18_139
*1700 FILLER_0_18_141
*1701 FILLER_0_18_15