*SPEF "ieee 1481-1999"
*DESIGN "tt_um_jleightcap"
*DATE "19:51:54 Saturday June 01, 2024"
*VENDOR "The OpenROAD Project"
*PROGRAM "OpenROAD"
*VERSION "da0053d7b0014ab9c87ea148875ff6c2a0f9b658"
*DESIGN_FLOW "NAME_SCOPE LOCAL" "PIN_CAP NONE"
*DIVIDER /
*DELIMITER :
*BUS_DELIMITER []
*T_UNIT 1 NS
*C_UNIT 1 PF
*R_UNIT 1 OHM
*L_UNIT 1 HENRY

*NAME_MAP
*3 clk
*4 ena
*5 rst_n
*6 ui_in[0]
*7 ui_in[1]
*8 ui_in[2]
*9 ui_in[3]
*10 ui_in[4]
*11 ui_in[5]
*12 ui_in[6]
*13 ui_in[7]
*14 uio_in[0]
*15 uio_in[1]
*16 uio_in[2]
*17 uio_in[3]
*18 uio_in[4]
*19 uio_in[5]
*20 uio_in[6]
*21 uio_in[7]
*22 uio_oe[0]
*23 uio_oe[1]
*24 uio_oe[2]
*25 uio_oe[3]
*26 uio_oe[4]
*27 uio_oe[5]
*28 uio_oe[6]
*29 uio_oe[7]
*30 uio_out[0]
*31 uio_out[1]
*32 uio_out[2]
*33 uio_out[3]
*34 uio_out[4]
*35 uio_out[5]
*36 uio_out[6]
*37 uio_out[7]
*38 uo_out[0]
*39 uo_out[1]
*40 uo_out[2]
*41 uo_out[3]
*42 uo_out[4]
*43 uo_out[5]
*44 uo_out[6]
*45 uo_out[7]
*46 _000_
*47 _001_
*48 _002_
*49 _003_
*50 _004_
*51 _005_
*52 _006_
*53 _007_
*54 _008_
*55 _009_
*56 _010_
*57 _011_
*58 _012_
*59 _013_
*60 _014_
*61 _015_
*62 _016_
*63 _017_
*64 _018_
*65 _019_
*66 _020_
*67 _021_
*68 _022_
*69 _023_
*70 _024_
*71 _025_
*72 _026_
*73 _027_
*74 _028_
*75 _029_
*76 _030_
*77 _031_
*78 _032_
*79 _033_
*80 _034_
*81 _035_
*82 _036_
*83 _037_
*84 _038_
*85 _039_
*86 _040_
*87 _041_
*88 _042_
*89 _043_
*90 _044_
*91 _045_
*92 _046_
*93 _047_
*94 _048_
*95 _049_
*96 _050_
*97 _051_
*98 _052_
*99 _053_
*100 _054_
*101 _055_
*102 _056_
*103 _057_
*104 _058_
*105 _059_
*106 _060_
*107 _061_
*108 _062_
*109 _063_
*110 _064_
*111 _065_
*112 _066_
*113 _067_
*114 _068_
*115 _069_
*116 _070_
*117 _071_
*118 _072_
*119 _073_
*120 _074_
*121 _075_
*122 _076_
*123 _077_
*124 _078_
*125 _079_
*126 _080_
*127 _081_
*128 _082_
*129 _083_
*130 _084_
*131 _085_
*132 _086_
*133 _087_
*134 _088_
*135 _089_
*136 _090_
*137 _091_
*138 _092_
*139 _093_
*140 _094_
*141 _095_
*142 _096_
*143 _097_
*144 _098_
*145 _099_
*146 _100_
*147 _101_
*148 _102_
*149 _103_
*150 _104_
*151 _105_
*152 _106_
*153 _107_
*154 _108_
*155 _109_
*156 _110_
*157 _111_
*158 _112_
*159 _113_
*160 _114_
*161 _115_
*162 _116_
*163 _117_
*164 _118_
*165 _119_
*166 _120_
*167 _121_
*168 _122_
*169 _123_
*170 _124_
*171 _125_
*172 _126_
*173 _127_
*174 _128_
*175 _129_
*176 _130_
*177 _131_
*178 _132_
*179 _133_
*180 _134_
*181 _135_
*182 _136_
*183 _137_
*184 _138_
*185 _139_
*186 _140_
*187 _141_
*188 _142_
*189 _143_
*190 _144_
*191 _145_
*192 _146_
*193 _147_
*194 _148_
*195 _149_
*196 _150_
*197 _151_
*198 _152_
*199 _153_
*200 _154_
*201 _155_
*202 _156_
*203 _157_
*204 _158_
*205 _159_
*206 _160_
*207 _161_
*208 _162_
*209 _163_
*210 _164_
*211 _165_
*212 _166_
*213 _167_
*214 _168_
*215 _169_
*216 _170_
*217 _171_
*218 _172_
*219 _173_
*220 _174_
*221 _175_
*222 _176_
*223 _177_
*224 _178_
*225 _179_
*226 _180_
*227 _181_
*228 _182_
*229 _183_
*230 _184_
*231 _185_
*232 _186_
*233 _187_
*234 _188_
*235 _189_
*236 _190_
*237 _191_
*238 _192_
*239 _193_
*240 _194_
*241 _195_
*242 _196_
*243 _197_
*244 _198_
*245 _199_
*246 _200_
*247 _201_
*248 _202_
*249 _203_
*250 _204_
*251 _205_
*252 _206_
*253 _207_
*254 _208_
*255 _209_
*256 _210_
*257 _211_
*258 _212_
*259 _213_
*260 _214_
*261 _215_
*262 _216_
*263 _217_
*264 _218_
*265 _219_
*266 _220_
*267 _221_
*268 _222_
*269 _223_
*270 _224_
*271 _225_
*272 _226_
*273 _227_
*274 _228_
*275 _229_
*276 _230_
*277 _231_
*278 _232_
*279 _233_
*280 _234_
*281 _235_
*282 _236_
*283 _237_
*284 _238_
*285 clknet_0_clk
*286 clknet_1_0__leaf_clk
*287 clknet_1_1__leaf_clk
*288 ft\.c\$app_arg_0
*289 ft\.c\$app_arg_1
*290 ft\.s1\[0\]
*291 ft\.s1\[10\]
*292 ft\.s1\[11\]
*293 ft\.s1\[12\]
*294 ft\.s1\[13\]
*295 ft\.s1\[14\]
*296 ft\.s1\[15\]
*297 ft\.s1\[1\]
*298 ft\.s1\[2\]
*299 ft\.s1\[3\]
*300 ft\.s1\[4\]
*301 ft\.s1\[5\]
*302 ft\.s1\[6\]
*303 ft\.s1\[7\]
*304 ft\.s1\[8\]
*305 ft\.s1\[9\]
*306 net1
*307 net10
*308 net11
*309 net12
*310 net13
*311 net14
*312 net15
*313 net16
*314 net17
*315 net18
*316 net19
*317 net2
*318 net20
*319 net21
*320 net22
*321 net23
*322 net24
*323 net25
*324 net26
*325 net27
*326 net28
*327 net29
*328 net3
*329 net30
*330 net31
*331 net32
*332 net33
*333 net34
*334 net35
*335 net4
*336 net5
*337 net6
*338 net7
*339 net8
*340 net9
*341 FILLER_0_0_109
*342 FILLER_0_0_113
*343 FILLER_0_0_125
*344 FILLER_0_0_137
*345 FILLER_0_0_141
*346 FILLER_0_0_15
*347 FILLER_0_0_153
*348 FILLER_0_0_165
*349 FILLER_0_0_169
*350 FILLER_0_0_181
*351 FILLER_0_0_193
*352 FILLER_0_0_197
*353 FILLER_0_0_209
*354 FILLER_0_0_221
*355 FILLER_0_0_225
*356 FILLER_0_0_237
*357 FILLER_0_0_249
*358 FILLER_0_0_253
*359 FILLER_0_0_265
*360 FILLER_0_0_27
*361 FILLER_0_0_277
*362 FILLER_0_0_281
*363 FILLER_0_0_29
*364 FILLER_0_0_293
*365 FILLER_0_0_3
*366 FILLER_0_0_305
*367 FILLER_0_0_309
*368 FILLER_0_0_321
*369 FILLER_0_0_333
*370 FILLER_0_0_41
*371 FILLER_0_0_53
*372 FILLER_0_0_57
*373 FILLER_0_0_69
*374 FILLER_0_0_81
*375 FILLER_0_0_85
*376 FILLER_0_0_97
*377 FILLER_0_10_109
*378 FILLER_0_10_121
*379 FILLER_0_10_133
*380 FILLER_0_10_139
*381 FILLER_0_10_141
*382 FILLER_0_10_15
*383 FILLER_0_10_153
*384 FILLER_0_10_165
*385 FILLER_0_10_177
*386 FILLER_0_10_189
*387 FILLER_0_10_195
*388 FILLER_0_10_197
*389 FILLER_0_10_209
*390 FILLER_0_10_221
*391 FILLER_0_10_233
*392 FILLER_0_10_245
*393 FILLER_0_10_251
*394 FILLER_0_10_253
*395 FILLER_0_10_265
*396 FILLER_0_10_27
*397 FILLER_0_10_277
*398 FILLER_0_10_289
*399 FILLER_0_10_29
*400 FILLER_0_10_3
*401 FILLER_0_10_301
*402 FILLER_0_10_307
*403 FILLER_0_10_309
*404 FILLER_0_10_321
*405 FILLER_0_10_333
*406 FILLER_0_10_41
*407 FILLER_0_10_53
*408 FILLER_0_10_65
*409 FILLER_0_10_77
*410 FILLER_0_10_83
*411 FILLER_0_10_85
*412 FILLER_0_10_97
*413 FILLER_0_11_105
*414 FILLER_0_11_111
*415 FILLER_0_11_113
*416 FILLER_0_11_125
*417 FILLER_0_11_137
*418 FILLER_0_11_149
*419 FILLER_0_11_15
*420 FILLER_0_11_161
*421 FILLER_0_11_167
*422 FILLER_0_11_169
*423 FILLER_0_11_181
*424 FILLER_0_11_193
*425 FILLER_0_11_205
*426 FILLER_0_11_217
*427 FILLER_0_11_223
*428 FILLER_0_11_225
*429 FILLER_0_11_237
*430 FILLER_0_11_249
*431 FILLER_0_11_261
*432 FILLER_0_11_27
*433 FILLER_0_11_273
*434 FILLER_0_11_279
*435 FILLER_0_11_281
*436 FILLER_0_11_293
*437 FILLER_0_11_3
*438 FILLER_0_11_305
*439 FILLER_0_11_317
*440 FILLER_0_11_329
*441 FILLER_0_11_39
*442 FILLER_0_11_51
*443 FILLER_0_11_55
*444 FILLER_0_11_57
*445 FILLER_0_11_69
*446 FILLER_0_11_81
*447 FILLER_0_11_93
*448 FILLER_0_12_109
*449 FILLER_0_12_121
*450 FILLER_0_12_133
*451 FILLER_0_12_139
*452 FILLER_0_12_141
*453 FILLER_0_12_15
*454 FILLER_0_12_153
*455 FILLER_0_12_165
*456 FILLER_0_12_177
*457 FILLER_0_12_189
*458 FILLER_0_12_195
*459 FILLER_0_12_197
*460 FILLER_0_12_209
*461 FILLER_0_12_221
*462 FILLER_0_12_233
*463 FILLER_0_12_245
*464 FILLER_0_12_251
*465 FILLER_0_12_253
*466 FILLER_0_12_265
*467 FILLER_0_12_27
*468 FILLER_0_12_277
*469 FILLER_0_12_289
*470 FILLER_0_12_29
*471 FILLER_0_12_3
*472 FILLER_0_12_301
*473 FILLER_0_12_307
*474 FILLER_0_12_309
*475 FILLER_0_12_321
*476 FILLER_0_12_333
*477 FILLER_0_12_41
*478 FILLER_0_12_53
*479 FILLER_0_12_65
*480 FILLER_0_12_77
*481 FILLER_0_12_83
*482 FILLER_0_12_85
*483 FILLER_0_12_97
*484 FILLER_0_13_105
*485 FILLER_0_13_111
*486 FILLER_0_13_113
*487 FILLER_0_13_125
*488 FILLER_0_13_137
*489 FILLER_0_13_149
*490 FILLER_0_13_15
*491 FILLER_0_13_161
*492 FILLER_0_13_167
*493 FILLER_0_13_169
*494 FILLER_0_13_181
*495 FILLER_0_13_193
*496 FILLER_0_13_205
*497 FILLER_0_13_217
*498 FILLER_0_13_223
*499 FILLER_0_13_225
*500 FILLER_0_13_237
*501 FILLER_0_13_249
*502 FILLER_0_13_261
*503 FILLER_0_13_27
*504 FILLER_0_13_273
*505 FILLER_0_13_279
*506 FILLER_0_13_281
*507 FILLER_0_13_293
*508 FILLER_0_13_3
*509 FILLER_0_13_305
*510 FILLER_0_13_317
*511 FILLER_0_13_329
*512 FILLER_0_13_39
*513 FILLER_0_13_51
*514 FILLER_0_13_55
*515 FILLER_0_13_57
*516 FILLER_0_13_69
*517 FILLER_0_13_81
*518 FILLER_0_13_93
*519 FILLER_0_14_109
*520 FILLER_0_14_121
*521 FILLER_0_14_133
*522 FILLER_0_14_139
*523 FILLER_0_14_141
*524 FILLER_0_14_15
*525 FILLER_0_14_153
*526 FILLER_0_14_165
*527 FILLER_0_14_177
*528 FILLER_0_14_189
*529 FILLER_0_14_195
*530 FILLER_0_14_197
*531 FILLER_0_14_209
*532 FILLER_0_14_221
*533 FILLER_0_14_233
*534 FILLER_0_14_245
*535 FILLER_0_14_251
*536 FILLER_0_14_253
*537 FILLER_0_14_265
*538 FILLER_0_14_27
*539 FILLER_0_14_277
*540 FILLER_0_14_289
*541 FILLER_0_14_29
*542 FILLER_0_14_3
*543 FILLER_0_14_301
*544 FILLER_0_14_307
*545 FILLER_0_14_309
*546 FILLER_0_14_321
*547 FILLER_0_14_333
*548 FILLER_0_14_41
*549 FILLER_0_14_53
*550 FILLER_0_14_65
*551 FILLER_0_14_77
*552 FILLER_0_14_83
*553 FILLER_0_14_85
*554 FILLER_0_14_97
*555 FILLER_0_15_105
*556 FILLER_0_15_111
*557 FILLER_0_15_113
*558 FILLER_0_15_125
*559 FILLER_0_15_137
*560 FILLER_0_15_149
*561 FILLER_0_15_15
*562 FILLER_0_15_161
*563 FILLER_0_15_167
*564 FILLER_0_15_169
*565 FILLER_0_15_181
*566 FILLER_0_15_193
*567 FILLER_0_15_205
*568 FILLER_0_15_217
*569 FILLER_0_15_223
*570 FILLER_0_15_225
*571 FILLER_0_15_237
*572 FILLER_0_15_249
*573 FILLER_0_15_261
*574 FILLER_0_15_27
*575 FILLER_0_15_273
*576 FILLER_0_15_279
*577 FILLER_0_15_281
*578 FILLER_0_15_293
*579 FILLER_0_15_3
*580 FILLER_0_15_305
*581 FILLER_0_15_317
*582 FILLER_0_15_329
*583 FILLER_0_15_39
*584 FILLER_0_15_51
*585 FILLER_0_15_55
*586 FILLER_0_15_57
*587 FILLER_0_15_69
*588 FILLER_0_15_81
*589 FILLER_0_15_93
*590 FILLER_0_16_109
*591 FILLER_0_16_121
*592 FILLER_0_16_133
*593 FILLER_0_16_139
*594 FILLER_0_16_141
*595 FILLER_0_16_15
*596 FILLER_0_16_153
*597 FILLER_0_16_165
*598 FILLER_0_16_177
*599 FILLER_0_16_189
*600 FILLER_0_16_195
*601 FILLER_0_16_197
*602 FILLER_0_16_209
*603 FILLER_0_16_221
*604 FILLER_0_16_233
*605 FILLER_0_16_245
*606 FILLER_0_16_251
*607 FILLER_0_16_253
*608 FILLER_0_16_265
*609 FILLER_0_16_27
*610 FILLER_0_16_277
*611 FILLER_0_16_289
*612 FILLER_0_16_29
*613 FILLER_0_16_3
*614 FILLER_0_16_301
*615 FILLER_0_16_307
*616 FILLER_0_16_309
*617 FILLER_0_16_321
*618 FILLER_0_16_333
*619 FILLER_0_16_41
*620 FILLER_0_16_53
*621 FILLER_0_16_65
*622 FILLER_0_16_77
*623 FILLER_0_16_83
*624 FILLER_0_16_85
*625 FILLER_0_16_97
*626 FILLER_0_17_105
*627 FILLER_0_17_111
*628 FILLER_0_17_113
*629 FILLER_0_17_125
*630 FILLER_0_17_137
*631 FILLER_0_17_149
*632 FILLER_0_17_15
*633 FILLER_0_17_161
*634 FILLER_0_17_167
*635 FILLER_0_17_169
*636 FILLER_0_17_181
*637 FILLER_0_17_193
*638 FILLER_0_17_205
*639 FILLER_0_17_217
*640 FILLER_0_17_223
*641 FILLER_0_17_225
*642 FILLER_0_17_237
*643 FILLER_0_17_249
*644 FILLER_0_17_261
*645 FILLER_0_17_27
*646 FILLER_0_17_273
*647 FILLER_0_17_279
*648 FILLER_0_17_281
*649 FILLER_0_17_293
*650 FILLER_0_17_3
*651 FILLER_0_17_305
*652 FILLER_0_17_317
*653 FILLER_0_17_329
*654 FILLER_0_17_39
*655 FILLER_0_17_51
*656 FILLER_0_17_55
*657 FILLER_0_17_57
*658 FILLER_0_17_69
*659 FILLER_0_17_81
*660 FILLER_0_17_93
*661 FILLER_0_18_109
*662 FILLER_0_18_121
*663 FILLER_0_18_133
*664 FILLER_0_18_139
*665 FILLER_0_18_141
*666 FILLER_0_18_15
*667 FILLER_0_18_153
*668 FILLER_0_18_165
*669 FILLER_0_18_177
*670 FILLER_0_18_189
*671 FILLER_0_18_195
*672 FILLER_0_18_197
*673 FILLER_0_18_209
*674 FILLER_0_18_221
*675 FILLER_0_18_233
*676 FILLER_0_18_245
*677 FILLER_0_18_251
*678 FILLER_0_18_253
*679 FILLER_0_18_265
*680 FILLER_0_18_27
*681 FILLER_0_18_277
*682 FILLER_0_18_289
*683 FILLER_0_18_29
*684 FILLER_0_18_3
*685 FILLER_0_18_301
*686 FILLER_0_18_307
*687 FILLER_0_18_309
*688 FILLER_0_18_321
*689 FILLER_0_18_333
*690 FILLER_0_18_41
*691 FILLER_0_18_53
*692 FILLER_0_18_65
*693 FILLER_0_18_77
*694 FILLER_0_18_83
*695 FILLER_0_18_85
*696 FILLER_0_18_97
*697 FILLER_0_19_105
*698 FILLER_0_19_111
*699 FILLER_0_19_113
*700 FILLER_0_19_125
*701 FILLER_0_19_137
*702 FILLER_0_19_149
*703 FILLER_0_19_15
*704 FILLER_0_19_161
*705 FILLER_0_19_167
*706 FILLER_0_19_169
*707 FILLER_0_19_181
*708 FILLER_0_19_193
*709 FILLER_0_19_205
*710 FILLER_0_19_217
*711 FILLER_0_19_223
*712 FILLER_0_19_225
*713 FILLER_0_19_237
*714 FILLER_0_19_249
*715 FILLER_0_19_261
*716 FILLER_0_19_27
*717 FILLER_0_19_273
*718 FILLER_0_19_279
*719 FILLER_0_19_281
*720 FILLER_0_19_293
*721 FILLER_0_19_3
*722 FILLER_0_19_305
*723 FILLER_0_19_317
*724 FILLER_0_19_329
*725 FILLER_0_19_39
*726 FILLER_0_19_51
*727 FILLER_0_19_55
*728 FILLER_0_19_57
*729 FILLER_0_19_69
*730 FILLER_0_19_81
*731 FILLER_0_19_93
*732 FILLER_0_1_105
*733 FILLER_0_1_111
*734 FILLER_0_1_113
*735 FILLER_0_1_125
*736 FILLER_0_1_137
*737 FILLER_0_1_149
*738 FILLER_0_1_15
*739 FILLER_0_1_161
*740 FILLER_0_1_167
*741 FILLER_0_1_169
*742 FILLER_0_1_181
*743 FILLER_0_1_193
*744 FILLER_0_1_205
*745 FILLER_0_1_217
*746 FILLER_0_1_223
*747 FILLER_0_1_225
*748 FILLER_0_1_237
*749 FILLER_0_1_249
*750 FILLER_0_1_261
*751 FILLER_0_1_27
*752 FILLER_0_1_273
*753 FILLER_0_1_279
*754 FILLER_0_1_281
*755 FILLER_0_1_293
*756 FILLER_0_1_3
*757 FILLER_0_1_305
*758 FILLER_0_1_317
*759 FILLER_0_1_329
*760 FILLER_0_1_39
*761 FILLER_0_1_51
*762 FILLER_0_1_55
*763 FILLER_0_1_57
*764 FILLER_0_1_69
*765 FILLER_0_1_81
*766 FILLER_0_1_93
*767 FILLER_0_20_109
*768 FILLER_0_20_121
*769 FILLER_0_20_133
*770 FILLER_0_20_139
*771 FILLER_0_20_141
*772 FILLER_0_20_15
*773 FILLER_0_20_153
*774 FILLER_0_20_165
*775 FILLER_0_20_177
*776 FILLER_0_20_189
*777 FILLER_0_20_195
*778 FILLER_0_20_197
*779 FILLER_0_20_209
*780 FILLER_0_20_221
*781 FILLER_0_20_233
*782 FILLER_0_20_245
*783 FILLER_0_20_251
*784 FILLER_0_20_253
*785 FILLER_0_20_265
*786 FILLER_0_20_27
*787 FILLER_0_20_277
*788 FILLER_0_20_289
*789 FILLER_0_20_29
*790 FILLER_0_20_3
*791 FILLER_0_20_301
*792 FILLER_0_20_307
*793 FILLER_0_20_309
*794 FILLER_0_20_321
*795 FILLER_0_20_333
*796 FILLER_0_20_41
*797 FILLER_0_20_53
*798 FILLER_0_20_65
*799 FILLER_0_20_77
*800 FILLER_0_20_83
*801 FILLER_0_20_85
*802 FILLER_0_20_97
*803 FILLER_0_21_105
*804 FILLER_0_21_111
*805 FILLER_0_21_113
*806 FILLER_0_21_125
*807 FILLER_0_21_137
*808 FILLER_0_21_149
*809 FILLER_0_21_15
*810 FILLER_0_21_161
*811 FILLER_0_21_167
*812 FILLER_0_21_169
*813 FILLER_0_21_181
*814 FILLER_0_21_193
*815 FILLER_0_21_205
*816 FILLER_0_21_217
*817 FILLER_0_21_223
*818 FILLER_0_21_225
*819 FILLER_0_21_237
*820 FILLER_0_21_249
*821 FILLER_0_21_261
*822 FILLER_0_21_27
*823 FILLER_0_21_273
*824 FILLER_0_21_279
*825 FILLER_0_21_281
*826 FILLER_0_21_293
*827 FILLER_0_21_3
*828 FILLER_0_21_305
*829 FILLER_0_21_317
*830 FILLER_0_21_329
*831 FILLER_0_21_39
*832 FILLER_0_21_51
*833 FILLER_0_21_55
*834 FILLER_0_21_57
*835 FILLER_0_21_69
*836 FILLER_0_21_81
*837 FILLER_0_21_93
*838 FILLER_0_22_109
*839 FILLER_0_22_121
*840 FILLER_0_22_133
*841 FILLER_0_22_139
*842 FILLER_0_22_141
*843 FILLER_0_22_15
*844 FILLER_0_22_153
*845 FILLER_0_22_165
*846 FILLER_0_22_177
*847 FILLER_0_22_189
*848 FILLER_0_22_195
*849 FILLER_0_22_197
*850 FILLER_0_22_209
*851 FILLER_0_22_221
*852 FILLER_0_22_233
*853 FILLER_0_22_245
*854 FILLER_0_22_251
*855 FILLER_0_22_253
*856 FILLER_0_22_265
*857 FILLER_0_22_27
*858 FILLER_0_22_277
*859 FILLER_0_22_289
*860 FILLER_0_22_29
*861 FILLER_0_22_3
*862 FILLER_0_22_301
*863 FILLER_0_22_307
*864 FILLER_0_22_309
*865 FILLER_0_22_321
*866 FILLER_0_22_333
*867 FILLER_0_22_41
*868 FILLER_0_22_53
*869 FILLER_0_22_65
*870 FILLER_0_22_77
*871 FILLER_0_22_83
*872 FILLER_0_22_85
*873 FILLER_0_22_97
*874 FILLER_0_23_105
*875 FILLER_0_23_111
*876 FILLER_0_23_113
*877 FILLER_0_23_125
*878 FILLER_0_23_137
*879 FILLER_0_23_149
*880 FILLER_0_23_15
*881 FILLER_0_23_161
*882 FILLER_0_23_167
*883 FILLER_0_23_175
*884 FILLER_0_23_205
*885 FILLER_0_23_217
*886 FILLER_0_23_221
*887 FILLER_0_23_232
*888 FILLER_0_23_244
*889 FILLER_0_23_256
*890 FILLER_0_23_268
*891 FILLER_0_23_27
*892 FILLER_0_23_281
*893 FILLER_0_23_293
*894 FILLER_0_23_3
*895 FILLER_0_23_305
*896 FILLER_0_23_317
*897 FILLER_0_23_329
*898 FILLER_0_23_39
*899 FILLER_0_23_51
*900 FILLER_0_23_55
*901 FILLER_0_23_57
*902 FILLER_0_23_69
*903 FILLER_0_23_81
*904 FILLER_0_23_93
*905 FILLER_0_24_109
*906 FILLER_0_24_121
*907 FILLER_0_24_133
*908 FILLER_0_24_139
*909 FILLER_0_24_141
*910 FILLER_0_24_15
*911 FILLER_0_24_153
*912 FILLER_0_24_169
*913 FILLER_0_24_178
*914 FILLER_0_24_190
*915 FILLER_0_24_197
*916 FILLER_0_24_222
*917 FILLER_0_24_230
*918 FILLER_0_24_239
*919 FILLER_0_24_251
*920 FILLER_0_24_259
*921 FILLER_0_24_27
*922 FILLER_0_24_271
*923 FILLER_0_24_283
*924 FILLER_0_24_29
*925 FILLER_0_24_291
*926 FILLER_0_24_298
*927 FILLER_0_24_3
*928 FILLER_0_24_306
*929 FILLER_0_24_309
*930 FILLER_0_24_321
*931 FILLER_0_24_333
*932 FILLER_0_24_41
*933 FILLER_0_24_53
*934 FILLER_0_24_65
*935 FILLER_0_24_77
*936 FILLER_0_24_83
*937 FILLER_0_24_85
*938 FILLER_0_24_97
*939 FILLER_0_25_105
*940 FILLER_0_25_111
*941 FILLER_0_25_113
*942 FILLER_0_25_125
*943 FILLER_0_25_137
*944 FILLER_0_25_149
*945 FILLER_0_25_15
*946 FILLER_0_25_161
*947 FILLER_0_25_169
*948 FILLER_0_25_181
*949 FILLER_0_25_193
*950 FILLER_0_25_208
*951 FILLER_0_25_219
*952 FILLER_0_25_223
*953 FILLER_0_25_225
*954 FILLER_0_25_229
*955 FILLER_0_25_242
*956 FILLER_0_25_264
*957 FILLER_0_25_27
*958 FILLER_0_25_3
*959 FILLER_0_25_305
*960 FILLER_0_25_317
*961 FILLER_0_25_329
*962 FILLER_0_25_39
*963 FILLER_0_25_51
*964 FILLER_0_25_55
*965 FILLER_0_25_57
*966 FILLER_0_25_69
*967 FILLER_0_25_81
*968 FILLER_0_25_93
*969 FILLER_0_26_109
*970 FILLER_0_26_121
*971 FILLER_0_26_133
*972 FILLER_0_26_139
*973 FILLER_0_26_141
*974 FILLER_0_26_149
*975 FILLER_0_26_15
*976 FILLER_0_26_164
*977 FILLER_0_26_184
*978 FILLER_0_26_188
*979 FILLER_0_26_195
*980 FILLER_0_26_197
*981 FILLER_0_26_205
*982 FILLER_0_26_227
*983 FILLER_0_26_233
*984 FILLER_0_26_237
*985 FILLER_0_26_249
*986 FILLER_0_26_253
*987 FILLER_0_26_268
*988 FILLER_0_26_27
*989 FILLER_0_26_276
*990 FILLER_0_26_282
*991 FILLER_0_26_29
*992 FILLER_0_26_290
*993 FILLER_0_26_294
*994 FILLER_0_26_3
*995 FILLER_0_26_300
*996 FILLER_0_26_309
*997 FILLER_0_26_321
*998 FILLER_0_26_333
*999 FILLER_0_26_41
*1000 FILLER_0_26_53
*1001 FILLER_0_26_65
*1002 FILLER_0_26_77
*1003 FILLER_0_26_83
*1004 FILLER_0_26_85
*1005 FILLER_0_26_97
*1006 FILLER_0_27_105
*1007 FILLER_0_27_111
*1008 FILLER_0_27_113
*1009 FILLER_0_27_125
*1010 FILLER_0_27_137
*1011 FILLER_0_27_149
*1012 FILLER_0_27_15
*1013 FILLER_0_27_161
*1014 FILLER_0_27_167
*1015 FILLER_0_27_169
*1016 FILLER_0_27_177
*1017 FILLER_0_27_189
*1018 FILLER_0_27_196
*1019 FILLER_0_27_208
*1020 FILLER_0_27_214
*1021 FILLER_0_27_222
*1022 FILLER_0_27_225
*1023 FILLER_0_27_233
*1024 FILLER_0_27_240
*1025 FILLER_0_27_252
*1026 FILLER_0_27_259
*1027 FILLER_0_27_27
*1028 FILLER_0_27_271
*1029 FILLER_0_27_279
*1030 FILLER_0_27_281
*1031 FILLER_0_27_3
*1032 FILLER_0_27_306
*1033 FILLER_0_27_318
*1034 FILLER_0_27_330
*1035 FILLER_0_27_334
*1036 FILLER_0_27_39
*1037 FILLER_0_27_51
*1038 FILLER_0_27_55
*1039 FILLER_0_27_57
*1040 FILLER_0_27_69
*1041 FILLER_0_27_81
*1042 FILLER_0_27_93
*1043 FILLER_0_28_109
*1044 FILLER_0_28_121
*1045 FILLER_0_28_133
*1046 FILLER_0_28_139
*1047 FILLER_0_28_141
*1048 FILLER_0_28_15
*1049 FILLER_0_28_165
*1050 FILLER_0_28_178
*1051 FILLER_0_28_197
*1052 FILLER_0_28_219
*1053 FILLER_0_28_223
*1054 FILLER_0_28_244
*1055 FILLER_0_28_27
*1056 FILLER_0_28_270
*1057 FILLER_0_28_29
*1058 FILLER_0_28_290
*1059 FILLER_0_28_3
*1060 FILLER_0_28_306
*1061 FILLER_0_28_309
*1062 FILLER_0_28_321
*1063 FILLER_0_28_333
*1064 FILLER_0_28_41
*1065 FILLER_0_28_53
*1066 FILLER_0_28_65
*1067 FILLER_0_28_77
*1068 FILLER_0_28_83
*1069 FILLER_0_28_85
*1070 FILLER_0_28_97
*1071 FILLER_0_29_105
*1072 FILLER_0_29_111
*1073 FILLER_0_29_113
*1074 FILLER_0_29_125
*1075 FILLER_0_29_149
*1076 FILLER_0_29_15
*1077 FILLER_0_29_161
*1078 FILLER_0_29_167
*1079 FILLER_0_29_169
*1080 FILLER_0_29_182
*1081 FILLER_0_29_194
*1082 FILLER_0_29_198
*1083 FILLER_0_29_208
*1084 FILLER_0_29_217
*1085 FILLER_0_29_223
*1086 FILLER_0_29_225
*1087 FILLER_0_29_234
*1088 FILLER_0_29_239
*1089 FILLER_0_29_247
*1090 FILLER_0_29_253
*1091 FILLER_0_29_265
*1092 FILLER_0_29_27
*1093 FILLER_0_29_277
*1094 FILLER_0_29_281
*1095 FILLER_0_29_289
*1096 FILLER_0_29_297
*1097 FILLER_0_29_3
*1098 FILLER_0_29_304
*1099 FILLER_0_29_316
*1100 FILLER_0_29_327
*1101 FILLER_0_29_39
*1102 FILLER_0_29_51
*1103 FILLER_0_29_55
*1104 FILLER_0_29_57
*1105 FILLER_0_29_69
*1106 FILLER_0_29_81
*1107 FILLER_0_29_93
*1108 FILLER_0_2_109
*1109 FILLER_0_2_121
*1110 FILLER_0_2_133
*1111 FILLER_0_2_139
*1112 FILLER_0_2_141
*1113 FILLER_0_2_15
*1114 FILLER_0_2_153
*1115 FILLER_0_2_165
*1116 FILLER_0_2_177
*1117 FILLER_0_2_189
*1118 FILLER_0_2_195
*1119 FILLER_0_2_197
*1120 FILLER_0_2_209
*1121 FILLER_0_2_221
*1122 FILLER_0_2_233
*1123 FILLER_0_2_245
*1124 FILLER_0_2_251
*1125 FILLER_0_2_253
*1126 FILLER_0_2_265
*1127 FILLER_0_2_27
*1128 FILLER_0_2_277
*1129 FILLER_0_2_289
*1130 FILLER_0_2_29
*1131 FILLER_0_2_3
*1132 FILLER_0_2_301
*1133 FILLER_0_2_307
*1134 FILLER_0_2_309
*1135 FILLER_0_2_321
*1136 FILLER_0_2_333
*1137 FILLER_0_2_41
*1138 FILLER_0_2_53
*1139 FILLER_0_2_65
*1140 FILLER_0_2_77
*1141 FILLER_0_2_83
*1142 FILLER_0_2_85
*1143 FILLER_0_2_97
*1144 FILLER_0_30_109
*1145 FILLER_0_30_121
*1146 FILLER_0_30_133
*1147 FILLER_0_30_139
*1148 FILLER_0_30_144
*1149 FILLER_0_30_15
*1150 FILLER_0_30_155
*1151 FILLER_0_30_176
*1152 FILLER_0_30_194
*1153 FILLER_0_30_211
*1154 FILLER_0_30_223
*1155 FILLER_0_30_227
*1156 FILLER_0_30_249
*1157 FILLER_0_30_253
*1158 FILLER_0_30_27
*1159 FILLER_0_30_281
*1160 FILLER_0_30_29
*1161 FILLER_0_30_296
*1162 FILLER_0_30_3
*1163 FILLER_0_30_305
*1164 FILLER_0_30_316
*1165 FILLER_0_30_329
*1166 FILLER_0_30_41
*1167 FILLER_0_30_53
*1168 FILLER_0_30_65
*1169 FILLER_0_30_77
*1170 FILLER_0_30_83
*1171 FILLER_0_30_85
*1172 FILLER_0_30_97
*1173 FILLER_0_31_104
*1174 FILLER_0_31_116
*1175 FILLER_0_31_124
*1176 FILLER_0_31_133
*1177 FILLER_0_31_145
*1178 FILLER_0_31_15
*1179 FILLER_0_31_157
*1180 FILLER_0_31_165
*1181 FILLER_0_31_172
*1182 FILLER_0_31_182
*1183 FILLER_0_31_194
*1184 FILLER_0_31_200
*1185 FILLER_0_31_204
*1186 FILLER_0_31_208
*1187 FILLER_0_31_216
*1188 FILLER_0_31_222
*1189 FILLER_0_31_233
*1190 FILLER_0_31_245
*1191 FILLER_0_31_257
*1192 FILLER_0_31_264
*1193 FILLER_0_31_27
*1194 FILLER_0_31_276
*1195 FILLER_0_31_281
*1196 FILLER_0_31_293
*1197 FILLER_0_31_3
*1198 FILLER_0_31_305
*1199 FILLER_0_31_317
*1200 FILLER_0_31_327
*1201 FILLER_0_31_39
*1202 FILLER_0_31_51
*1203 FILLER_0_31_55
*1204 FILLER_0_31_57
*1205 FILLER_0_31_69
*1206 FILLER_0_31_92
*1207 FILLER_0_32_119
*1208 FILLER_0_32_15
*1209 FILLER_0_32_163
*1210 FILLER_0_32_174
*1211 FILLER_0_32_181
*1212 FILLER_0_32_193
*1213 FILLER_0_32_206
*1214 FILLER_0_32_220
*1215 FILLER_0_32_232
*1216 FILLER_0_32_236
*1217 FILLER_0_32_245
*1218 FILLER_0_32_251
*1219 FILLER_0_32_253
*1220 FILLER_0_32_259
*1221 FILLER_0_32_269
*1222 FILLER_0_32_27
*1223 FILLER_0_32_286
*1224 FILLER_0_32_29
*1225 FILLER_0_32_3
*1226 FILLER_0_32_307
*1227 FILLER_0_32_312
*1228 FILLER_0_32_316
*1229 FILLER_0_32_322
*1230 FILLER_0_32_329
*1231 FILLER_0_32_41
*1232 FILLER_0_32_53
*1233 FILLER_0_32_65
*1234 FILLER_0_32_73
*1235 FILLER_0_32_81
*1236 FILLER_0_32_96
*1237 FILLER_0_33_101
*1238 FILLER_0_33_136
*1239 FILLER_0_33_143
*1240 FILLER_0_33_15
*1241 FILLER_0_33_177
*1242 FILLER_0_33_189
*1243 FILLER_0_33_198
*1244 FILLER_0_33_210
*1245 FILLER_0_33_222
*1246 FILLER_0_33_237
*1247 FILLER_0_33_253
*1248 FILLER_0_33_263
*1249 FILLER_0_33_27
*1250 FILLER_0_33_271
*1251 FILLER_0_33_275
*1252 FILLER_0_33_279
*1253 FILLER_0_33_281
*1254 FILLER_0_33_289
*1255 FILLER_0_33_299
*1256 FILLER_0_33_3
*1257 FILLER_0_33_305
*1258 FILLER_0_33_311
*1259 FILLER_0_33_318
*1260 FILLER_0_33_330
*1261 FILLER_0_33_334
*1262 FILLER_0_33_39
*1263 FILLER_0_33_51
*1264 FILLER_0_33_55
*1265 FILLER_0_33_57
*1266 FILLER_0_33_69
*1267 FILLER_0_33_91
*1268 FILLER_0_34_102
*1269 FILLER_0_34_129
*1270 FILLER_0_34_139
*1271 FILLER_0_34_15
*1272 FILLER_0_34_161
*1273 FILLER_0_34_197
*1274 FILLER_0_34_221
*1275 FILLER_0_34_226
*1276 FILLER_0_34_236
*1277 FILLER_0_34_240
*1278 FILLER_0_34_244
*1279 FILLER_0_34_260
*1280 FILLER_0_34_267
*1281 FILLER_0_34_27
*1282 FILLER_0_34_29
*1283 FILLER_0_34_290
*1284 FILLER_0_34_298
*1285 FILLER_0_34_3
*1286 FILLER_0_34_305
*1287 FILLER_0_34_309
*1288 FILLER_0_34_315
*1289 FILLER_0_34_332
*1290 FILLER_0_34_41
*1291 FILLER_0_34_70
*1292 FILLER_0_34_82
*1293 FILLER_0_34_88
*1294 FILLER_0_34_96
*1295 FILLER_0_35_111
*1296 FILLER_0_35_113
*1297 FILLER_0_35_121
*1298 FILLER_0_35_15
*1299 FILLER_0_35_150
*1300 FILLER_0_35_160
*1301 FILLER_0_35_189
*1302 FILLER_0_35_196
*1303 FILLER_0_35_203
*1304 FILLER_0_35_223
*1305 FILLER_0_35_232
*1306 FILLER_0_35_252
*1307 FILLER_0_35_260
*1308 FILLER_0_35_268
*1309 FILLER_0_35_27
*1310 FILLER_0_35_276
*1311 FILLER_0_35_289
*1312 FILLER_0_35_298
*1313 FILLER_0_35_3
*1314 FILLER_0_35_306
*1315 FILLER_0_35_321
*1316 FILLER_0_35_333
*1317 FILLER_0_35_39
*1318 FILLER_0_35_55
*1319 FILLER_0_35_57
*1320 FILLER_0_35_69
*1321 FILLER_0_35_77
*1322 FILLER_0_35_81
*1323 FILLER_0_35_90
*1324 FILLER_0_36_102
*1325 FILLER_0_36_114
*1326 FILLER_0_36_122
*1327 FILLER_0_36_128
*1328 FILLER_0_36_141
*1329 FILLER_0_36_15
*1330 FILLER_0_36_157
*1331 FILLER_0_36_217
*1332 FILLER_0_36_223
*1333 FILLER_0_36_231
*1334 FILLER_0_36_243
*1335 FILLER_0_36_251
*1336 FILLER_0_36_253
*1337 FILLER_0_36_27
*1338 FILLER_0_36_271
*1339 FILLER_0_36_282
*1340 FILLER_0_36_29
*1341 FILLER_0_36_290
*1342 FILLER_0_36_294
*1343 FILLER_0_36_3
*1344 FILLER_0_36_300
*1345 FILLER_0_36_309
*1346 FILLER_0_36_321
*1347 FILLER_0_36_329
*1348 FILLER_0_36_41
*1349 FILLER_0_36_47
*1350 FILLER_0_36_59
*1351 FILLER_0_36_66
*1352 FILLER_0_36_82
*1353 FILLER_0_36_85
*1354 FILLER_0_36_93
*1355 FILLER_0_37_111
*1356 FILLER_0_37_113
*1357 FILLER_0_37_139
*1358 FILLER_0_37_15
*1359 FILLER_0_37_154
*1360 FILLER_0_37_166
*1361 FILLER_0_37_169
*1362 FILLER_0_37_181
*1363 FILLER_0_37_193
*1364 FILLER_0_37_215
*1365 FILLER_0_37_223
*1366 FILLER_0_37_239
*1367 FILLER_0_37_246
*1368 FILLER_0_37_252
*1369 FILLER_0_37_269
*1370 FILLER_0_37_27
*1371 FILLER_0_37_277
*1372 FILLER_0_37_293
*1373 FILLER_0_37_3
*1374 FILLER_0_37_307
*1375 FILLER_0_37_313
*1376 FILLER_0_37_317
*1377 FILLER_0_37_332
*1378 FILLER_0_37_46
*1379 FILLER_0_37_54
*1380 FILLER_0_37_77
*1381 FILLER_0_38_102
*1382 FILLER_0_38_110
*1383 FILLER_0_38_121
*1384 FILLER_0_38_128
*1385 FILLER_0_38_13
*1386 FILLER_0_38_132
*1387 FILLER_0_38_141
*1388 FILLER_0_38_145
*1389 FILLER_0_38_153
*1390 FILLER_0_38_169
*1391 FILLER_0_38_20
*1392 FILLER_0_38_225
*1393 FILLER_0_38_238
*1394 FILLER_0_38_253
*1395 FILLER_0_38_278
*1396 FILLER_0_38_284
*1397 FILLER_0_38_29
*1398 FILLER_0_38_3
*1399 FILLER_0_38_306
*1400 FILLER_0_38_317
*1401 FILLER_0_38_329
*1402 FILLER_0_38_36
*1403 FILLER_0_38_42
*1404 FILLER_0_38_50
*1405 FILLER_0_38_57
*1406 FILLER_0_38_71
*1407 FILLER_0_38_81
*1408 FILLER_0_38_89
*1409 FILLER_0_38_93
*1410 FILLER_0_3_105
*1411 FILLER_0_3_111
*1412 FILLER_0_3_113
*1413 FILLER_0_3_125
*1414 FILLER_0_3_137
*1415 FILLER_0_3_149
*1416 FILLER_0_3_15
*1417 FILLER_0_3_161
*1418 FILLER_0_3_167
*1419 FILLER_0_3_169
*1420 FILLER_0_3_181
*1421 FILLER_0_3_193
*1422 FILLER_0_3_205
*1423 FILLER_0_3_217
*1424 FILLER_0_3_223
*1425 FILLER_0_3_225
*1426 FILLER_0_3_237
*1427 FILLER_0_3_249
*1428 FILLER_0_3_261
*1429 FILLER_0_3_27
*1430 FILLER_0_3_273
*1431 FILLER_0_3_279
*1432 FILLER_0_3_281
*1433 FILLER_0_3_293
*1434 FILLER_0_3_3
*1435 FILLER_0_3_305
*1436 FILLER_0_3_317
*1437 FILLER_0_3_329
*1438 FILLER_0_3_39
*1439 FILLER_0_3_51
*1440 FILLER_0_3_55
*1441 FILLER_0_3_57
*1442 FILLER_0_3_69
*1443 FILLER_0_3_81
*1444 FILLER_0_3_93
*1445 FILLER_0_4_109
*1446 FILLER_0_4_121
*1447 FILLER_0_4_133
*1448 FILLER_0_4_139
*1449 FILLER_0_4_141
*1450 FILLER_0_4_15
*1451 FILLER_0_4_153
*1452 FILLER_0_4_165
*1453 FILLER_0_4_177
*1454 FILLER_0_4_189
*1455 FILLER_0_4_195
*1456 FILLER_0_4_197
*1457 FILLER_0_4_209
*1458 FILLER_0_4_221
*1459 FILLER_0_4_233
*1460 FILLER_0_4_245
*1461 FILLER_0_4_251
*1462 FILLER_0_4_253
*1463 FILLER_0_4_265
*1464 FILLER_0_4_27
*1465 FILLER_0_4_277
*1466 FILLER_0_4_289
*1467 FILLER_0_4_29
*1468 FILLER_0_4_3
*1469 FILLER_0_4_301
*1470 FILLER_0_4_307
*1471 FILLER_0_4_309
*1472 FILLER_0_4_321
*1473 FILLER_0_4_333
*1474 FILLER_0_4_41
*1475 FILLER_0_4_53
*1476 FILLER_0_4_65
*1477 FILLER_0_4_77
*1478 FILLER_0_4_83
*1479 FILLER_0_4_85
*1480 FILLER_0_4_97
*1481 FILLER_0_5_105
*1482 FILLER_0_5_111
*1483 FILLER_0_5_113
*1484 FILLER_0_5_125
*1485 FILLER_0_5_137
*1486 FILLER_0_5_149
*1487 FILLER_0_5_15
*1488 FILLER_0_5_161
*1489 FILLER_0_5_167
*1490 FILLER_0_5_169
*1491 FILLER_0_5_181
*1492 FILLER_0_5_193
*1493 FILLER_0_5_205
*1494 FILLER_0_5_217
*1495 FILLER_0_5_223
*1496 FILLER_0_5_225
*1497 FILLER_0_5_237
*1498 FILLER_0_5_249
*1499 FILLER_0_5_261
*1500 FILLER_0_5_27
*1501 FILLER_0_5_273
*1502 FILLER_0_5_279
*1503 FILLER_0_5_281
*1504 FILLER_0_5_293
*1505 FILLER_0_5_3
*1506 FILLER_0_5_305
*1507 FILLER_0_5_317
*1508 FILLER_0_5_329
*1509 FILLER_0_5_39
*1510 FILLER_0_5_51
*1511 FILLER_0_5_55
*1512 FILLER_0_5_57
*1513 FILLER_0_5_69
*1514 FILLER_0_5_81
*1515 FILLER_0_5_93
*1516 FILLER_0_6_109
*1517 FILLER_0_6_121
*1518 FILLER_0_6_133
*1519 FILLER_0_6_139
*1520 FILLER_0_6_141
*1521 FILLER_0_6_15
*1522 FILLER_0_6_153
*1523 FILLER_0_6_165
*1524 FILLER_0_6_177
*1525 FILLER_0_6_189
*1526 FILLER_0_6_195
*1527 FILLER_0_6_197
*1528 FILLER_0_6_209
*1529 FILLER_0_6_221
*1530 FILLER_0_6_233
*1531 FILLER_0_6_245
*1532 FILLER_0_6_251
*1533 FILLER_0_6_253
*1534 FILLER_0_6_265
*1535 FILLER_0_6_27
*1536 FILLER_0_6_277
*1537 FILLER_0_6_289
*1538 FILLER_0_6_29
*1539 FILLER_0_6_3
*1540 FILLER_0_6_301
*1541 FILLER_0_6_307
*1542 FILLER_0_6_309
*1543 FILLER_0_6_321
*1544 FILLER_0_6_333
*1545 FILLER_0_6_41
*1546 FILLER_0_6_53
*1547 FILLER_0_6_65
*1548 FILLER_0_6_77
*1549 FILLER_0_6_83
*1550 FILLER_0_6_85
*1551 FILLER_0_6_97
*1552 FILLER_0_7_105
*1553 FILLER_0_7_111
*1554 FILLER_0_7_113
*1555 FILLER_0_7_125
*1556 FILLER_0_7_137
*1557 FILLER_0_7_149
*1558 FILLER_0_7_15
*1559 FILLER_0_7_161
*1560 FILLER_0_7_167
*1561 FILLER_0_7_169
*1562 FILLER_0_7_181
*1563 FILLER_0_7_193
*1564 FILLER_0_7_205
*1565 FILLER_0_7_217
*1566 FILLER_0_7_223
*1567 FILLER_0_7_225
*1568 FILLER_0_7_237
*1569 FILLER_0_7_249
*1570 FILLER_0_7_261