*SPEF "ieee 1481-1999"
*DESIGN "tt_um_agurrier_mastermind"
*DATE "18:29:42 Thursday May 30, 2024"
*VENDOR "The OpenROAD Project"
*PROGRAM "OpenROAD"
*VERSION "da0053d7b0014ab9c87ea148875ff6c2a0f9b658"
*DESIGN_FLOW "NAME_SCOPE LOCAL" "PIN_CAP NONE"
*DIVIDER /
*DELIMITER :
*BUS_DELIMITER []
*T_UNIT 1 NS
*C_UNIT 1 PF
*R_UNIT 1 OHM
*L_UNIT 1 HENRY

*NAME_MAP
*3 clk
*4 ena
*5 rst_n
*6 ui_in[0]
*7 ui_in[1]
*8 ui_in[2]
*9 ui_in[3]
*10 ui_in[4]
*11 ui_in[5]
*12 ui_in[6]
*13 ui_in[7]
*14 uio_in[0]
*15 uio_in[1]
*16 uio_in[2]
*17 uio_in[3]
*18 uio_in[4]
*19 uio_in[5]
*20 uio_in[6]
*21 uio_in[7]
*22 net14
*23 net15
*24 net16
*25 net17
*26 net18
*27 net19
*28 net20
*29 net21
*30 net22
*31 net23
*32 net24
*33 net25
*34 net26
*35 net27
*36 net28
*37 net29
*38 uo_out[0]
*39 uo_out[1]
*40 uo_out[2]
*41 uo_out[3]
*42 uo_out[4]
*43 uo_out[5]
*44 uo_out[6]
*45 uo_out[7]
*46 DEBUG_SIGS_GTKWAVE\.\@0\$slideswitch\[0\]
*47 DEBUG_SIGS_GTKWAVE\.\@0\$slideswitch\[1\]
*48 DEBUG_SIGS_GTKWAVE\.\@0\$slideswitch\[2\]
*49 DEBUG_SIGS_GTKWAVE\.\@0\$slideswitch\[3\]
*50 DEBUG_SIGS_GTKWAVE\.\@0\$slideswitch\[4\]
*51 DEBUG_SIGS_GTKWAVE\.\@0\$slideswitch\[5\]
*52 DEBUG_SIGS_GTKWAVE\.\@0\$slideswitch\[6\]
*53 DEBUG_SIGS_GTKWAVE\.\@0\$slideswitch\[7\]
*54 DEBUG_SIGS_GTKWAVE\.\@0\$sseg_decimal_point_n
*55 DEBUG_SIGS_GTKWAVE\.\@0\$sseg_segment_n\[0\]
*56 DEBUG_SIGS_GTKWAVE\.\@0\$sseg_segment_n\[1\]
*57 DEBUG_SIGS_GTKWAVE\.\@0\$sseg_segment_n\[2\]
*58 DEBUG_SIGS_GTKWAVE\.\@0\$sseg_segment_n\[3\]
*59 DEBUG_SIGS_GTKWAVE\.\@0\$sseg_segment_n\[4\]
*60 DEBUG_SIGS_GTKWAVE\.\@0\$sseg_segment_n\[5\]
*61 DEBUG_SIGS_GTKWAVE\.\@0\$sseg_segment_n\[6\]
*62 DEBUG_SIGS_GTKWAVE\.\/digit\[0\]\.\/leds\[0\]\.\@0\$viz_lit
*63 DEBUG_SIGS_GTKWAVE\.\/digit\[0\]\.\/leds\[1\]\.\@0\$viz_lit
*64 DEBUG_SIGS_GTKWAVE\.\/digit\[0\]\.\/leds\[2\]\.\@0\$viz_lit
*65 DEBUG_SIGS_GTKWAVE\.\/digit\[0\]\.\/leds\[3\]\.\@0\$viz_lit
*66 DEBUG_SIGS_GTKWAVE\.\/digit\[0\]\.\/leds\[4\]\.\@0\$viz_lit
*67 DEBUG_SIGS_GTKWAVE\.\/digit\[0\]\.\/leds\[5\]\.\@0\$viz_lit
*68 DEBUG_SIGS_GTKWAVE\.\/digit\[0\]\.\/leds\[6\]\.\@0\$viz_lit
*69 DEBUG_SIGS_GTKWAVE\.\/digit\[0\]\.\/leds\[7\]\.\@0\$viz_lit
*70 DEBUG_SIGS_GTKWAVE\.\/fpga_pins\.\/fpga\.P_mastermind\.\@0\$counter\[0\]
*71 DEBUG_SIGS_GTKWAVE\.\/fpga_pins\.\/fpga\.P_mastermind\.\@0\$counter\[10\]
*72 DEBUG_SIGS_GTKWAVE\.\/fpga_pins\.\/fpga\.P_mastermind\.\@0\$counter\[11\]
*73 DEBUG_SIGS_GTKWAVE\.\/fpga_pins\.\/fpga\.P_mastermind\.\@0\$counter\[1\]
*74 DEBUG_SIGS_GTKWAVE\.\/fpga_pins\.\/fpga\.P_mastermind\.\@0\$counter\[2\]
*75 DEBUG_SIGS_GTKWAVE\.\/fpga_pins\.\/fpga\.P_mastermind\.\@0\$counter\[3\]
*76 DEBUG_SIGS_GTKWAVE\.\/fpga_pins\.\/fpga\.P_mastermind\.\@0\$counter\[4\]
*77 DEBUG_SIGS_GTKWAVE\.\/fpga_pins\.\/fpga\.P_mastermind\.\@0\$counter\[5\]
*78 DEBUG_SIGS_GTKWAVE\.\/fpga_pins\.\/fpga\.P_mastermind\.\@0\$counter\[6\]
*79 DEBUG_SIGS_GTKWAVE\.\/fpga_pins\.\/fpga\.P_mastermind\.\@0\$counter\[7\]
*80 DEBUG_SIGS_GTKWAVE\.\/fpga_pins\.\/fpga\.P_mastermind\.\@0\$counter\[8\]
*81 DEBUG_SIGS_GTKWAVE\.\/fpga_pins\.\/fpga\.P_mastermind\.\@0\$counter\[9\]
*82 DEBUG_SIGS_GTKWAVE\.\/fpga_pins\.\/fpga\.P_mastermind\.\@0\$din_hit_b2
*83 DEBUG_SIGS_GTKWAVE\.\/fpga_pins\.\/fpga\.P_mastermind\.\@0\$in\[0\]
*84 DEBUG_SIGS_GTKWAVE\.\/fpga_pins\.\/fpga\.P_mastermind\.\@0\$in\[1\]
*85 DEBUG_SIGS_GTKWAVE\.\/fpga_pins\.\/fpga\.P_mastermind\.\@0\$in\[2\]
*86 DEBUG_SIGS_GTKWAVE\.\/fpga_pins\.\/fpga\.P_mastermind\.\@0\$in\[3\]
*87 DEBUG_SIGS_GTKWAVE\.\/fpga_pins\.\/fpga\.P_mastermind\.\@0\$in\[4\]
*88 DEBUG_SIGS_GTKWAVE\.\/fpga_pins\.\/fpga\.P_mastermind\.\@0\$in\[5\]
*89 DEBUG_SIGS_GTKWAVE\.\/fpga_pins\.\/fpga\.P_mastermind\.\@0\$in\[6\]
*90 DEBUG_SIGS_GTKWAVE\.\/fpga_pins\.\/fpga\.P_mastermind\.\@0\$in\[7\]
*91 DEBUG_SIGS_GTKWAVE\.\/fpga_pins\.\/fpga\.P_mastermind\.\@0\$in_b2\[0\]
*92 DEBUG_SIGS_GTKWAVE\.\/fpga_pins\.\/fpga\.P_mastermind\.\@0\$in_b2\[1\]
*93 DEBUG_SIGS_GTKWAVE\.\/fpga_pins\.\/fpga\.P_mastermind\.\@0\$in_b2\[2\]
*94 DEBUG_SIGS_GTKWAVE\.\/fpga_pins\.\/fpga\.P_mastermind\.\@0\$in_b2\[3\]
*95 DEBUG_SIGS_GTKWAVE\.\/fpga_pins\.\/fpga\.P_mastermind\.\@0\$in_b2\[4\]
*96 DEBUG_SIGS_GTKWAVE\.\/fpga_pins\.\/fpga\.P_mastermind\.\@0\$in_b2\[5\]
*97 DEBUG_SIGS_GTKWAVE\.\/fpga_pins\.\/fpga\.P_mastermind\.\@0\$in_b2\[6\]
*98 DEBUG_SIGS_GTKWAVE\.\/fpga_pins\.\/fpga\.P_mastermind\.\@0\$in_b2\[7\]
*99 DEBUG_SIGS_GTKWAVE\.\/fpga_pins\.\/fpga\.P_mastermind\.\@0\$in_hit
*100 DEBUG_SIGS_GTKWAVE\.\/fpga_pins\.\/fpga\.P_mastermind\.\@0\$in_hit_b2
*101 DEBUG_SIGS_GTKWAVE\.\/fpga_pins\.\/fpga\.P_mastermind\.\@0\$in_hit_edge
*102 DEBUG_SIGS_GTKWAVE\.\/fpga_pins\.\/fpga\.P_mastermind\.\@0\$ndin_hit_b2
*103 DEBUG_SIGS_GTKWAVE\.\/fpga_pins\.\/fpga\.P_mastermind\.\@0\$reset
*104 DEBUG_SIGS_GTKWAVE\.\/fpga_pins\.\/fpga\.P_mastermind\.\@0\$valid1
*105 DEBUG_SIGS_GTKWAVE\.\/fpga_pins\.\/fpga\.P_mastermind\.\@1\$ans\[0\]
*106 DEBUG_SIGS_GTKWAVE\.\/fpga_pins\.\/fpga\.P_mastermind\.\@1\$ans\[10\]
*107 DEBUG_SIGS_GTKWAVE\.\/fpga_pins\.\/fpga\.P_mastermind\.\@1\$ans\[11\]
*108 DEBUG_SIGS_GTKWAVE\.\/fpga_pins\.\/fpga\.P_mastermind\.\@1\$ans\[1\]
*109 DEBUG_SIGS_GTKWAVE\.\/fpga_pins\.\/fpga\.P_mastermind\.\@1\$ans\[2\]
*110 DEBUG_SIGS_GTKWAVE\.\/fpga_pins\.\/fpga\.P_mastermind\.\@1\$ans\[3\]
*111 DEBUG_SIGS_GTKWAVE\.\/fpga_pins\.\/fpga\.P_mastermind\.\@1\$ans\[4\]
*112 DEBUG_SIGS_GTKWAVE\.\/fpga_pins\.\/fpga\.P_mastermind\.\@1\$ans\[5\]
*113 DEBUG_SIGS_GTKWAVE\.\/fpga_pins\.\/fpga\.P_mastermind\.\@1\$ans\[6\]
*114 DEBUG_SIGS_GTKWAVE\.\/fpga_pins\.\/fpga\.P_mastermind\.\@1\$ans\[7\]
*115 DEBUG_SIGS_GTKWAVE\.\/fpga_pins\.\/fpga\.P_mastermind\.\@1\$ans\[8\]
*116 DEBUG_SIGS_GTKWAVE\.\/fpga_pins\.\/fpga\.P_mastermind\.\@1\$ans\[9\]
*117 DEBUG_SIGS_GTKWAVE\.\/fpga_pins\.\/fpga\.P_mastermind\.\@1\$cnt1\[0\]
*118 DEBUG_SIGS_GTKWAVE\.\/fpga_pins\.\/fpga\.P_mastermind\.\@1\$cnt1\[1\]
*119 DEBUG_SIGS_GTKWAVE\.\/fpga_pins\.\/fpga\.P_mastermind\.\@1\$cnt1\[2\]
*120 DEBUG_SIGS_GTKWAVE\.\/fpga_pins\.\/fpga\.P_mastermind\.\@1\$cnt1_done
*121 DEBUG_SIGS_GTKWAVE\.\/fpga_pins\.\/fpga\.P_mastermind\.\@1\$color_cnt\[0\]
*122 DEBUG_SIGS_GTKWAVE\.\/fpga_pins\.\/fpga\.P_mastermind\.\@1\$color_cnt\[1\]
*123 DEBUG_SIGS_GTKWAVE\.\/fpga_pins\.\/fpga\.P_mastermind\.\@1\$color_cnt\[2\]
*124 DEBUG_SIGS_GTKWAVE\.\/fpga_pins\.\/fpga\.P_mastermind\.\@1\$color_guess\[0\]
*125 DEBUG_SIGS_GTKWAVE\.\/fpga_pins\.\/fpga\.P_mastermind\.\@1\$color_guess\[10\]
*126 DEBUG_SIGS_GTKWAVE\.\/fpga_pins\.\/fpga\.P_mastermind\.\@1\$color_guess\[11\]
*127 DEBUG_SIGS_GTKWAVE\.\/fpga_pins\.\/fpga\.P_mastermind\.\@1\$color_guess\[1\]
*128 DEBUG_SIGS_GTKWAVE\.\/fpga_pins\.\/fpga\.P_mastermind\.\@1\$color_guess\[2\]
*129 DEBUG_SIGS_GTKWAVE\.\/fpga_pins\.\/fpga\.P_mastermind\.\@1\$color_guess\[3\]
*130 DEBUG_SIGS_GTKWAVE\.\/fpga_pins\.\/fpga\.P_mastermind\.\@1\$color_guess\[4\]
*131 DEBUG_SIGS_GTKWAVE\.\/fpga_pins\.\/fpga\.P_mastermind\.\@1\$color_guess\[5\]
*132 DEBUG_SIGS_GTKWAVE\.\/fpga_pins\.\/fpga\.P_mastermind\.\@1\$color_guess\[6\]
*133 DEBUG_SIGS_GTKWAVE\.\/fpga_pins\.\/fpga\.P_mastermind\.\@1\$color_guess\[7\]
*134 DEBUG_SIGS_GTKWAVE\.\/fpga_pins\.\/fpga\.P_mastermind\.\@1\$color_guess\[8\]
*135 DEBUG_SIGS_GTKWAVE\.\/fpga_pins\.\/fpga\.P_mastermind\.\@1\$color_guess\[9\]
*136 DEBUG_SIGS_GTKWAVE\.\/fpga_pins\.\/fpga\.P_mastermind\.\@1\$dcnt1_done
*137 DEBUG_SIGS_GTKWAVE\.\/fpga_pins\.\/fpga\.P_mastermind\.\@1\$dgot_guess
*138 DEBUG_SIGS_GTKWAVE\.\/fpga_pins\.\/fpga\.P_mastermind\.\@1\$dvalid
*139 DEBUG_SIGS_GTKWAVE\.\/fpga_pins\.\/fpga\.P_mastermind\.\@1\$get_results_valid
*140 DEBUG_SIGS_GTKWAVE\.\/fpga_pins\.\/fpga\.P_mastermind\.\@1\$got_ans
*141 DEBUG_SIGS_GTKWAVE\.\/fpga_pins\.\/fpga\.P_mastermind\.\@1\$got_guess
*142 DEBUG_SIGS_GTKWAVE\.\/fpga_pins\.\/fpga\.P_mastermind\.\@1\$got_guess_edge
*143 DEBUG_SIGS_GTKWAVE\.\/fpga_pins\.\/fpga\.P_mastermind\.\@1\$guess\[0\]
*144 DEBUG_SIGS_GTKWAVE\.\/fpga_pins\.\/fpga\.P_mastermind\.\@1\$guess\[1\]
*145 DEBUG_SIGS_GTKWAVE\.\/fpga_pins\.\/fpga\.P_mastermind\.\@1\$guess\[2\]
*146 DEBUG_SIGS_GTKWAVE\.\/fpga_pins\.\/fpga\.P_mastermind\.\@1\$in_push
*147 DEBUG_SIGS_GTKWAVE\.\/fpga_pins\.\/fpga\.P_mastermind\.\@1\$in_pushed
*148 DEBUG_SIGS_GTKWAVE\.\/fpga_pins\.\/fpga\.P_mastermind\.\@1\$light_code\[0\]
*149 DEBUG_SIGS_GTKWAVE\.\/fpga_pins\.\/fpga\.P_mastermind\.\@1\$light_code\[1\]
*150 DEBUG_SIGS_GTKWAVE\.\/fpga_pins\.\/fpga\.P_mastermind\.\@1\$light_code\[2\]
*151 DEBUG_SIGS_GTKWAVE\.\/fpga_pins\.\/fpga\.P_mastermind\.\@1\$light_code\[3\]
*152 DEBUG_SIGS_GTKWAVE\.\/fpga_pins\.\/fpga\.P_mastermind\.\@1\$light_code\[4\]
*153 DEBUG_SIGS_GTKWAVE\.\/fpga_pins\.\/fpga\.P_mastermind\.\@1\$light_code\[5\]
*154 DEBUG_SIGS_GTKWAVE\.\/fpga_pins\.\/fpga\.P_mastermind\.\@1\$light_code\[6\]
*155 DEBUG_SIGS_GTKWAVE\.\/fpga_pins\.\/fpga\.P_mastermind\.\@1\$light_code\[7\]
*156 DEBUG_SIGS_GTKWAVE\.\/fpga_pins\.\/fpga\.P_mastermind\.\@1\$light_color\[0\]
*157 DEBUG_SIGS_GTKWAVE\.\/fpga_pins\.\/fpga\.P_mastermind\.\@1\$light_color\[1\]
*158 DEBUG_SIGS_GTKWAVE\.\/fpga_pins\.\/fpga\.P_mastermind\.\@1\$light_color\[2\]
*159 DEBUG_SIGS_GTKWAVE\.\/fpga_pins\.\/fpga\.P_mastermind\.\@1\$light_color\[3\]
*160 DEBUG_SIGS_GTKWAVE\.\/fpga_pins\.\/fpga\.P_mastermind\.\@1\$light_color_cnt\[0\]
*161 DEBUG_SIGS_GTKWAVE\.\/fpga_pins\.\/fpga\.P_mastermind\.\@1\$light_color_cnt\[1\]
*162 DEBUG_SIGS_GTKWAVE\.\/fpga_pins\.\/fpga\.P_mastermind\.\@1\$light_color_cnt\[2\]
*163 DEBUG_SIGS_GTKWAVE\.\/fpga_pins\.\/fpga\.P_mastermind\.\@1\$light_pos\[0\]
*164 DEBUG_SIGS_GTKWAVE\.\/fpga_pins\.\/fpga\.P_mastermind\.\@1\$light_pos\[1\]
*165 DEBUG_SIGS_GTKWAVE\.\/fpga_pins\.\/fpga\.P_mastermind\.\@1\$light_pos\[2\]
*166 DEBUG_SIGS_GTKWAVE\.\/fpga_pins\.\/fpga\.P_mastermind\.\@1\$light_pos\[3\]
*167 DEBUG_SIGS_GTKWAVE\.\/fpga_pins\.\/fpga\.P_mastermind\.\@1\$light_pos_cnt\[0\]
*168 DEBUG_SIGS_GTKWAVE\.\/fpga_pins\.\/fpga\.P_mastermind\.\@1\$light_pos_cnt\[1\]
*169 DEBUG_SIGS_GTKWAVE\.\/fpga_pins\.\/fpga\.P_mastermind\.\@1\$light_pos_cnt\[2\]
*170 DEBUG_SIGS_GTKWAVE\.\/fpga_pins\.\/fpga\.P_mastermind\.\@1\$lose
*171 DEBUG_SIGS_GTKWAVE\.\/fpga_pins\.\/fpga\.P_mastermind\.\@1\$lose_cnt\[0\]
*172 DEBUG_SIGS_GTKWAVE\.\/fpga_pins\.\/fpga\.P_mastermind\.\@1\$lose_cnt\[10\]
*173 DEBUG_SIGS_GTKWAVE\.\/fpga_pins\.\/fpga\.P_mastermind\.\@1\$lose_cnt\[11\]
*174 DEBUG_SIGS_GTKWAVE\.\/fpga_pins\.\/fpga\.P_mastermind\.\@1\$lose_cnt\[12\]
*175 DEBUG_SIGS_GTKWAVE\.\/fpga_pins\.\/fpga\.P_mastermind\.\@1\$lose_cnt\[13\]
*176 DEBUG_SIGS_GTKWAVE\.\/fpga_pins\.\/fpga\.P_mastermind\.\@1\$lose_cnt\[14\]
*177 DEBUG_SIGS_GTKWAVE\.\/fpga_pins\.\/fpga\.P_mastermind\.\@1\$lose_cnt\[15\]
*178 DEBUG_SIGS_GTKWAVE\.\/fpga_pins\.\/fpga\.P_mastermind\.\@1\$lose_cnt\[16\]
*179 DEBUG_SIGS_GTKWAVE\.\/fpga_pins\.\/fpga\.P_mastermind\.\@1\$lose_cnt\[17\]
*180 DEBUG_SIGS_GTKWAVE\.\/fpga_pins\.\/fpga\.P_mastermind\.\@1\$lose_cnt\[18\]
*181 DEBUG_SIGS_GTKWAVE\.\/fpga_pins\.\/fpga\.P_mastermind\.\@1\$lose_cnt\[19\]
*182 DEBUG_SIGS_GTKWAVE\.\/fpga_pins\.\/fpga\.P_mastermind\.\@1\$lose_cnt\[1\]
*183 DEBUG_SIGS_GTKWAVE\.\/fpga_pins\.\/fpga\.P_mastermind\.\@1\$lose_cnt\[20\]
*184 DEBUG_SIGS_GTKWAVE\.\/fpga_pins\.\/fpga\.P_mastermind\.\@1\$lose_cnt\[21\]
*185 DEBUG_SIGS_GTKWAVE\.\/fpga_pins\.\/fpga\.P_mastermind\.\@1\$lose_cnt\[2\]
*186 DEBUG_SIGS_GTKWAVE\.\/fpga_pins\.\/fpga\.P_mastermind\.\@1\$lose_cnt\[3\]
*187 DEBUG_SIGS_GTKWAVE\.\/fpga_pins\.\/fpga\.P_mastermind\.\@1\$lose_cnt\[4\]
*188 DEBUG_SIGS_GTKWAVE\.\/fpga_pins\.\/fpga\.P_mastermind\.\@1\$lose_cnt\[5\]
*189 DEBUG_SIGS_GTKWAVE\.\/fpga_pins\.\/fpga\.P_mastermind\.\@1\$lose_cnt\[6\]
*190 DEBUG_SIGS_GTKWAVE\.\/fpga_pins\.\/fpga\.P_mastermind\.\@1\$lose_cnt\[7\]
*191 DEBUG_SIGS_GTKWAVE\.\/fpga_pins\.\/fpga\.P_mastermind\.\@1\$lose_cnt\[8\]
*192 DEBUG_SIGS_GTKWAVE\.\/fpga_pins\.\/fpga\.P_mastermind\.\@1\$lose_cnt\[9\]
*193 DEBUG_SIGS_GTKWAVE\.\/fpga_pins\.\/fpga\.P_mastermind\.\@1\$lose_light\[0\]
*194 DEBUG_SIGS_GTKWAVE\.\/fpga_pins\.\/fpga\.P_mastermind\.\@1\$lose_light\[1\]
*195 DEBUG_SIGS_GTKWAVE\.\/fpga_pins\.\/fpga\.P_mastermind\.\@1\$lose_light\[2\]
*196 DEBUG_SIGS_GTKWAVE\.\/fpga_pins\.\/fpga\.P_mastermind\.\@1\$lose_light\[3\]
*197 DEBUG_SIGS_GTKWAVE\.\/fpga_pins\.\/fpga\.P_mastermind\.\@1\$lose_light\[4\]
*198 DEBUG_SIGS_GTKWAVE\.\/fpga_pins\.\/fpga\.P_mastermind\.\@1\$lose_light\[5\]
*199 DEBUG_SIGS_GTKWAVE\.\/fpga_pins\.\/fpga\.P_mastermind\.\@1\$lose_light\[6\]
*200 DEBUG_SIGS_GTKWAVE\.\/fpga_pins\.\/fpga\.P_mastermind\.\@1\$lose_light\[7\]
*201 DEBUG_SIGS_GTKWAVE\.\/fpga_pins\.\/fpga\.P_mastermind\.\@1\$ndcnt1_done
*202 DEBUG_SIGS_GTKWAVE\.\/fpga_pins\.\/fpga\.P_mastermind\.\@1\$ndgot_guess
*203 DEBUG_SIGS_GTKWAVE\.\/fpga_pins\.\/fpga\.P_mastermind\.\@1\$ndvalid
*204 DEBUG_SIGS_GTKWAVE\.\/fpga_pins\.\/fpga\.P_mastermind\.\@1\$newround
*205 DEBUG_SIGS_GTKWAVE\.\/fpga_pins\.\/fpga\.P_mastermind\.\@1\$no_repeat
*206 DEBUG_SIGS_GTKWAVE\.\/fpga_pins\.\/fpga\.P_mastermind\.\@1\$round\[0\]
*207 DEBUG_SIGS_GTKWAVE\.\/fpga_pins\.\/fpga\.P_mastermind\.\@1\$round\[1\]
*208 DEBUG_SIGS_GTKWAVE\.\/fpga_pins\.\/fpga\.P_mastermind\.\@1\$round\[2\]
*209 DEBUG_SIGS_GTKWAVE\.\/fpga_pins\.\/fpga\.P_mastermind\.\@1\$round\[3\]
*210 DEBUG_SIGS_GTKWAVE\.\/fpga_pins\.\/fpga\.P_mastermind\.\@1\$temp1\[0\]
*211 DEBUG_SIGS_GTKWAVE\.\/fpga_pins\.\/fpga\.P_mastermind\.\@1\$temp1\[1\]
*212 DEBUG_SIGS_GTKWAVE\.\/fpga_pins\.\/fpga\.P_mastermind\.\@1\$temp1\[2\]
*213 DEBUG_SIGS_GTKWAVE\.\/fpga_pins\.\/fpga\.P_mastermind\.\@1\$temp2\[0\]
*214 DEBUG_SIGS_GTKWAVE\.\/fpga_pins\.\/fpga\.P_mastermind\.\@1\$temp2\[1\]
*215 DEBUG_SIGS_GTKWAVE\.\/fpga_pins\.\/fpga\.P_mastermind\.\@1\$temp2\[2\]
*216 DEBUG_SIGS_GTKWAVE\.\/fpga_pins\.\/fpga\.P_mastermind\.\@1\$temp3\[0\]
*217 DEBUG_SIGS_GTKWAVE\.\/fpga_pins\.\/fpga\.P_mastermind\.\@1\$temp3\[1\]
*218 DEBUG_SIGS_GTKWAVE\.\/fpga_pins\.\/fpga\.P_mastermind\.\@1\$temp3\[2\]
*219 DEBUG_SIGS_GTKWAVE\.\/fpga_pins\.\/fpga\.P_mastermind\.\@1\$temp4\[0\]
*220 DEBUG_SIGS_GTKWAVE\.\/fpga_pins\.\/fpga\.P_mastermind\.\@1\$temp4\[1\]
*221 DEBUG_SIGS_GTKWAVE\.\/fpga_pins\.\/fpga\.P_mastermind\.\@1\$temp4\[2\]
*222 DEBUG_SIGS_GTKWAVE\.\/fpga_pins\.\/fpga\.P_mastermind\.\@1\$valid
*223 DEBUG_SIGS_GTKWAVE\.\/fpga_pins\.\/fpga\.P_mastermind\.\@1\$win
*224 DEBUG_SIGS_GTKWAVE\.\/fpga_pins\.\/fpga\.P_mastermind\.\@1\$win_cnt\[0\]
*225 DEBUG_SIGS_GTKWAVE\.\/fpga_pins\.\/fpga\.P_mastermind\.\@1\$win_cnt\[10\]
*226 DEBUG_SIGS_GTKWAVE\.\/fpga_pins\.\/fpga\.P_mastermind\.\@1\$win_cnt\[11\]
*227 DEBUG_SIGS_GTKWAVE\.\/fpga_pins\.\/fpga\.P_mastermind\.\@1\$win_cnt\[12\]
*228 DEBUG_SIGS_GTKWAVE\.\/fpga_pins\.\/fpga\.P_mastermind\.\@1\$win_cnt\[13\]
*229 DEBUG_SIGS_GTKWAVE\.\/fpga_pins\.\/fpga\.P_mastermind\.\@1\$win_cnt\[14\]
*230 DEBUG_SIGS_GTKWAVE\.\/fpga_pins\.\/fpga\.P_mastermind\.\@1\$win_cnt\[15\]
*231 DEBUG_SIGS_GTKWAVE\.\/fpga_pins\.\/fpga\.P_mastermind\.\@1\$win_cnt\[16\]
*232 DEBUG_SIGS_GTKWAVE\.\/fpga_pins\.\/fpga\.P_mastermind\.\@1\$win_cnt\[17\]
*233 DEBUG_SIGS_GTKWAVE\.\/fpga_pins\.\/fpga\.P_mastermind\.\@1\$win_cnt\[18\]
*234 DEBUG_SIGS_GTKWAVE\.\/fpga_pins\.\/fpga\.P_mastermind\.\@1\$win_cnt\[1\]
*235 DEBUG_SIGS_GTKWAVE\.\/fpga_pins\.\/fpga\.P_mastermind\.\@1\$win_cnt\[2\]
*236 DEBUG_SIGS_GTKWAVE\.\/fpga_pins\.\/fpga\.P_mastermind\.\@1\$win_cnt\[3\]
*237 DEBUG_SIGS_GTKWAVE\.\/fpga_pins\.\/fpga\.P_mastermind\.\@1\$win_cnt\[4\]
*238 DEBUG_SIGS_GTKWAVE\.\/fpga_pins\.\/fpga\.P_mastermind\.\@1\$win_cnt\[5\]
*239 DEBUG_SIGS_GTKWAVE\.\/fpga_pins\.\/fpga\.P_mastermind\.\@1\$win_cnt\[6\]
*240 DEBUG_SIGS_GTKWAVE\.\/fpga_pins\.\/fpga\.P_mastermind\.\@1\$win_cnt\[7\]
*241 DEBUG_SIGS_GTKWAVE\.\/fpga_pins\.\/fpga\.P_mastermind\.\@1\$win_cnt\[8\]
*242 DEBUG_SIGS_GTKWAVE\.\/fpga_pins\.\/fpga\.P_mastermind\.\@1\$win_cnt\[9\]
*243 DEBUG_SIGS_GTKWAVE\.\/fpga_pins\.\/fpga\.P_mastermind\.\@1\$win_light\[0\]
*244 DEBUG_SIGS_GTKWAVE\.\/fpga_pins\.\/fpga\.P_mastermind\.\@1\$win_light\[1\]
*245 DEBUG_SIGS_GTKWAVE\.\/fpga_pins\.\/fpga\.P_mastermind\.\@1\$win_light\[2\]
*246 DEBUG_SIGS_GTKWAVE\.\/fpga_pins\.\/fpga\.P_mastermind\.\@1\$win_light\[3\]
*247 DEBUG_SIGS_GTKWAVE\.\/fpga_pins\.\/fpga\.P_mastermind\.\@1\$win_light\[4\]
*248 DEBUG_SIGS_GTKWAVE\.\/fpga_pins\.\/fpga\.P_mastermind\.\@1\$win_light\[5\]
*249 DEBUG_SIGS_GTKWAVE\.\/fpga_pins\.\/fpga\.P_mastermind\.\@1\$win_light\[6\]
*250 DEBUG_SIGS_GTKWAVE\.\/fpga_pins\.\/fpga\.P_mastermind\.\@1\$win_light\[7\]
*251 DEBUG_SIGS_GTKWAVE\.\/switch\[0\]\.\@0\$viz_switch
*252 DEBUG_SIGS_GTKWAVE\.\/switch\[1\]\.\@0\$viz_switch
*253 DEBUG_SIGS_GTKWAVE\.\/switch\[2\]\.\@0\$viz_switch
*254 DEBUG_SIGS_GTKWAVE\.\/switch\[3\]\.\@0\$viz_switch
*255 DEBUG_SIGS_GTKWAVE\.\/switch\[4\]\.\@0\$viz_switch
*256 DEBUG_SIGS_GTKWAVE\.\/switch\[5\]\.\@0\$viz_switch
*257 DEBUG_SIGS_GTKWAVE\.\/switch\[6\]\.\@0\$viz_switch
*258 DEBUG_SIGS_GTKWAVE\.\/switch\[7\]\.\@0\$viz_switch
*259 FpgaPins_Fpga_MASTERMIND_ans_a2\[0\]
*260 FpgaPins_Fpga_MASTERMIND_ans_a2\[10\]
*261 FpgaPins_Fpga_MASTERMIND_ans_a2\[11\]
*262 FpgaPins_Fpga_MASTERMIND_ans_a2\[1\]
*263 FpgaPins_Fpga_MASTERMIND_ans_a2\[2\]
*264 FpgaPins_Fpga_MASTERMIND_ans_a2\[3\]
*265 FpgaPins_Fpga_MASTERMIND_ans_a2\[4\]
*266 FpgaPins_Fpga_MASTERMIND_ans_a2\[5\]
*267 FpgaPins_Fpga_MASTERMIND_ans_a2\[6\]
*268 FpgaPins_Fpga_MASTERMIND_ans_a2\[7\]
*269 FpgaPins_Fpga_MASTERMIND_ans_a2\[8\]
*270 FpgaPins_Fpga_MASTERMIND_ans_a2\[9\]
*271 FpgaPins_Fpga_MASTERMIND_cnt1_a2\[0\]
*272 FpgaPins_Fpga_MASTERMIND_cnt1_a2\[1\]
*273 FpgaPins_Fpga_MASTERMIND_cnt1_a2\[2\]
*274 FpgaPins_Fpga_MASTERMIND_color_cnt_a2\[0\]
*275 FpgaPins_Fpga_MASTERMIND_color_cnt_a2\[1\]
*276 FpgaPins_Fpga_MASTERMIND_color_cnt_a2\[2\]
*277 FpgaPins_Fpga_MASTERMIND_color_guess_a2\[0\]
*278 FpgaPins_Fpga_MASTERMIND_color_guess_a2\[10\]
*279 FpgaPins_Fpga_MASTERMIND_color_guess_a2\[11\]
*280 FpgaPins_Fpga_MASTERMIND_color_guess_a2\[1\]
*281 FpgaPins_Fpga_MASTERMIND_color_guess_a2\[2\]
*282 FpgaPins_Fpga_MASTERMIND_color_guess_a2\[3\]
*283 FpgaPins_Fpga_MASTERMIND_color_guess_a2\[4\]
*284 FpgaPins_Fpga_MASTERMIND_color_guess_a2\[5\]
*285 FpgaPins_Fpga_MASTERMIND_color_guess_a2\[6\]
*286 FpgaPins_Fpga_MASTERMIND_color_guess_a2\[7\]
*287 FpgaPins_Fpga_MASTERMIND_color_guess_a2\[8\]
*288 FpgaPins_Fpga_MASTERMIND_color_guess_a2\[9\]
*289 FpgaPins_Fpga_MASTERMIND_counter_a1\[0\]
*290 FpgaPins_Fpga_MASTERMIND_counter_a1\[10\]
*291 FpgaPins_Fpga_MASTERMIND_counter_a1\[11\]
*292 FpgaPins_Fpga_MASTERMIND_counter_a1\[1\]
*293 FpgaPins_Fpga_MASTERMIND_counter_a1\[2\]
*294 FpgaPins_Fpga_MASTERMIND_counter_a1\[3\]
*295 FpgaPins_Fpga_MASTERMIND_counter_a1\[4\]
*296 FpgaPins_Fpga_MASTERMIND_counter_a1\[5\]
*297 FpgaPins_Fpga_MASTERMIND_counter_a1\[6\]
*298 FpgaPins_Fpga_MASTERMIND_counter_a1\[7\]
*299 FpgaPins_Fpga_MASTERMIND_counter_a1\[8\]
*300 FpgaPins_Fpga_MASTERMIND_counter_a1\[9\]
*301 FpgaPins_Fpga_MASTERMIND_got_ans_a2
*302 FpgaPins_Fpga_MASTERMIND_in_a1\[0\]
*303 FpgaPins_Fpga_MASTERMIND_in_a1\[1\]
*304 FpgaPins_Fpga_MASTERMIND_in_a1\[2\]
*305 FpgaPins_Fpga_MASTERMIND_in_a1\[3\]
*306 FpgaPins_Fpga_MASTERMIND_in_a1\[4\]
*307 FpgaPins_Fpga_MASTERMIND_in_a1\[5\]
*308 FpgaPins_Fpga_MASTERMIND_in_a1\[6\]
*309 FpgaPins_Fpga_MASTERMIND_in_a1\[7\]
*310 FpgaPins_Fpga_MASTERMIND_in_b2_a1\[0\]
*311 FpgaPins_Fpga_MASTERMIND_in_b2_a1\[1\]
*312 FpgaPins_Fpga_MASTERMIND_in_b2_a1\[2\]
*313 FpgaPins_Fpga_MASTERMIND_in_b2_a1\[3\]
*314 FpgaPins_Fpga_MASTERMIND_in_b2_a1\[4\]
*315 FpgaPins_Fpga_MASTERMIND_in_b2_a1\[5\]
*316 FpgaPins_Fpga_MASTERMIND_in_b2_a1\[6\]
*317 FpgaPins_Fpga_MASTERMIND_in_b2_a1\[7\]
*318 FpgaPins_Fpga_MASTERMIND_in_hit_a1
*319 FpgaPins_Fpga_MASTERMIND_in_hit_edge_a1
*320 FpgaPins_Fpga_MASTERMIND_in_pushed_a2
*321 FpgaPins_Fpga_MASTERMIND_light_color_a2\[0\]
*322 FpgaPins_Fpga_MASTERMIND_light_color_a2\[1\]
*323 FpgaPins_Fpga_MASTERMIND_light_color_a2\[2\]
*324 FpgaPins_Fpga_MASTERMIND_light_color_a2\[3\]
*325 FpgaPins_Fpga_MASTERMIND_light_color_cnt_a2\[0\]
*326 FpgaPins_Fpga_MASTERMIND_light_color_cnt_a2\[1\]
*327 FpgaPins_Fpga_MASTERMIND_light_color_cnt_a2\[2\]
*328 FpgaPins_Fpga_MASTERMIND_light_pos_a2\[0\]
*329 FpgaPins_Fpga_MASTERMIND_light_pos_a2\[1\]
*330 FpgaPins_Fpga_MASTERMIND_light_pos_a2\[2\]
*331 FpgaPins_Fpga_MASTERMIND_light_pos_a2\[3\]
*332 FpgaPins_Fpga_MASTERMIND_light_pos_cnt_a2\[0\]
*333 FpgaPins_Fpga_MASTERMIND_light_pos_cnt_a2\[1\]
*334 FpgaPins_Fpga_MASTERMIND_light_pos_cnt_a2\[2\]
*335 FpgaPins_Fpga_MASTERMIND_lose_a2
*336 FpgaPins_Fpga_MASTERMIND_lose_cnt_a2\[0\]
*337 FpgaPins_Fpga_MASTERMIND_lose_cnt_a2\[10\]
*338 FpgaPins_Fpga_MASTERMIND_lose_cnt_a2\[11\]
*339 FpgaPins_Fpga_MASTERMIND_lose_cnt_a2\[12\]
*340 FpgaPins_Fpga_MASTERMIND_lose_cnt_a2\[13\]
*341 FpgaPins_Fpga_MASTERMIND_lose_cnt_a2\[14\]
*342 FpgaPins_Fpga_MASTERMIND_lose_cnt_a2\[15\]
*343 FpgaPins_Fpga_MASTERMIND_lose_cnt_a2\[16\]
*344 FpgaPins_Fpga_MASTERMIND_lose_cnt_a2\[17\]
*345 FpgaPins_Fpga_MASTERMIND_lose_cnt_a2\[18\]
*346 FpgaPins_Fpga_MASTERMIND_lose_cnt_a2\[19\]
*347 FpgaPins_Fpga_MASTERMIND_lose_cnt_a2\[1\]
*348 FpgaPins_Fpga_MASTERMIND_lose_cnt_a2\[20\]
*349 FpgaPins_Fpga_MASTERMIND_lose_cnt_a2\[21\]
*350 FpgaPins_Fpga_MASTERMIND_lose_cnt_a2\[2\]
*351 FpgaPins_Fpga_MASTERMIND_lose_cnt_a2\[3\]
*352 FpgaPins_Fpga_MASTERMIND_lose_cnt_a2\[4\]
*353 FpgaPins_Fpga_MASTERMIND_lose_cnt_a2\[5\]
*354 FpgaPins_Fpga_MASTERMIND_lose_cnt_a2\[6\]
*355 FpgaPins_Fpga_MASTERMIND_lose_cnt_a2\[7\]
*356 FpgaPins_Fpga_MASTERMIND_lose_cnt_a2\[8\]
*357 FpgaPins_Fpga_MASTERMIND_lose_cnt_a2\[9\]
*358 FpgaPins_Fpga_MASTERMIND_lose_light_a2\[0\]
*359 FpgaPins_Fpga_MASTERMIND_lose_light_a2\[1\]
*360 FpgaPins_Fpga_MASTERMIND_lose_light_a2\[2\]
*361 FpgaPins_Fpga_MASTERMIND_lose_light_a2\[3\]
*362 FpgaPins_Fpga_MASTERMIND_lose_light_a2\[4\]
*363 FpgaPins_Fpga_MASTERMIND_lose_light_a2\[5\]
*364 FpgaPins_Fpga_MASTERMIND_lose_light_a2\[6\]
*365 FpgaPins_Fpga_MASTERMIND_lose_light_a2\[7\]
*366 FpgaPins_Fpga_MASTERMIND_newround_a2
*367 FpgaPins_Fpga_MASTERMIND_no_repeat_a2
*368 FpgaPins_Fpga_MASTERMIND_reset_a1
*369 FpgaPins_Fpga_MASTERMIND_round_a2\[0\]
*370 FpgaPins_Fpga_MASTERMIND_round_a2\[1\]
*371 FpgaPins_Fpga_MASTERMIND_round_a2\[2\]
*372 FpgaPins_Fpga_MASTERMIND_round_a2\[3\]
*373 FpgaPins_Fpga_MASTERMIND_win_a2
*374 FpgaPins_Fpga_MASTERMIND_win_cnt_a2\[0\]
*375 FpgaPins_Fpga_MASTERMIND_win_cnt_a2\[10\]
*376 FpgaPins_Fpga_MASTERMIND_win_cnt_a2\[11\]
*377 FpgaPins_Fpga_MASTERMIND_win_cnt_a2\[12\]
*378 FpgaPins_Fpga_MASTERMIND_win_cnt_a2\[13\]
*379 FpgaPins_Fpga_MASTERMIND_win_cnt_a2\[14\]
*380 FpgaPins_Fpga_MASTERMIND_win_cnt_a2\[15\]
*381 FpgaPins_Fpga_MASTERMIND_win_cnt_a2\[16\]
*382 FpgaPins_Fpga_MASTERMIND_win_cnt_a2\[17\]
*383 FpgaPins_Fpga_MASTERMIND_win_cnt_a2\[18\]
*384 FpgaPins_Fpga_MASTERMIND_win_cnt_a2\[1\]
*385 FpgaPins_Fpga_MASTERMIND_win_cnt_a2\[2\]
*386 FpgaPins_Fpga_MASTERMIND_win_cnt_a2\[3\]
*387 FpgaPins_Fpga_MASTERMIND_win_cnt_a2\[4\]
*388 FpgaPins_Fpga_MASTERMIND_win_cnt_a2\[5\]
*389 FpgaPins_Fpga_MASTERMIND_win_cnt_a2\[6\]
*390 FpgaPins_Fpga_MASTERMIND_win_cnt_a2\[7\]
*391 FpgaPins_Fpga_MASTERMIND_win_cnt_a2\[8\]
*392 FpgaPins_Fpga_MASTERMIND_win_cnt_a2\[9\]
*393 FpgaPins_Fpga_MASTERMIND_win_light_a2\[0\]
*394 FpgaPins_Fpga_MASTERMIND_win_light_a2\[1\]
*395 FpgaPins_Fpga_MASTERMIND_win_light_a2\[2\]
*396 FpgaPins_Fpga_MASTERMIND_win_light_a2\[3\]
*397 FpgaPins_Fpga_MASTERMIND_win_light_a2\[4\]
*398 FpgaPins_Fpga_MASTERMIND_win_light_a2\[5\]
*399 FpgaPins_Fpga_MASTERMIND_win_light_a2\[6\]
*400 FpgaPins_Fpga_MASTERMIND_win_light_a2\[7\]
*401 _0000_
*402 _0001_
*403 _0002_
*404 _0003_
*405 _0004_
*406 _0005_
*407 _0006_
*408 _0007_
*409 _0008_
*410 _0009_
*411 _0010_
*412 _0011_
*413 _0012_
*414 _0013_
*415 _0014_
*416 _0015_
*417 _0016_
*418 _0017_
*419 _0018_
*420 _0019_
*421 _0020_
*422 _0021_
*423 _0022_
*424 _0023_
*425 _0024_
*426 _0025_
*427 _0026_
*428 _0027_
*429 _0028_
*430 _0029_
*431 _0030_
*432 _0031_
*433 _0032_
*434 _0033_
*435 _0034_
*436 _0035_
*437 _0036_
*438 _0037_
*439 _0038_
*440 _0039_
*441 _0040_
*442 _0041_
*443 _0042_
*444 _0043_
*445 _0044_
*446 _0045_
*447 _0046_
*448 _0047_
*449 _0048_
*450 _0049_
*451 _0050_
*452 _0051_
*453 _0052_
*454 _0053_
*455 _0054_
*456 _0055_
*457 _0056_
*458 _0057_
*459 _0058_
*460 _0059_
*461 _0060_
*462 _0061_
*463 _0062_
*464 _0063_
*465 _0064_
*466 _0065_
*467 _0066_
*468 _0067_
*469 _0068_
*470 _0069_
*471 _0070_
*472 _0071_
*473 _0072_
*474 _0073_
*475 _0074_
*476 _0075_
*477 _0076_
*478 _0077_
*479 _0078_
*480 _0079_
*481 _0080_
*482 _0081_
*483 _0082_
*484 _0083_
*485 _0084_
*486 _0085_
*487 _0086_
*488 _0087_
*489 _0088_
*490 _0089_
*491 _0090_
*492 _0091_
*493 _0092_
*494 _0093_
*495 _0094_
*496 _0095_
*497 _0096_
*498 _0097_
*499 _0098_
*500 _0099_
*501 _0100_
*502 _0101_
*503 _0102_
*504 _0103_
*505 _0104_
*506 _0105_
*507 _0106_
*508 _0107_
*509 _0108_
*510 _0109_
*511 _0110_
*512 _0111_
*513 _0112_
*514 _0113_
*515 _0114_
*516 _0115_
*517 _0116_
*518 _0117_
*519 _0118_
*520 _0119_
*521 _0120_
*522 _0121_
*523 _0122_
*524 _0123_
*525 _0124_
*526 _0125_
*527 _0126_
*528 _0127_
*529 _0128_
*530 _0129_
*531 _0130_
*532 _0131_
*533 _0132_
*534 _0133_
*535 _0134_
*536 _0135_
*537 _0136_
*538 _0137_
*539 _0138_
*540 _0139_
*541 _0140_
*542 _0141_
*543 _0142_
*544 _0143_
*545 _0144_
*546 _0145_
*547 _0146_
*548 _0147_
*549 _0148_
*550 _0149_
*551 _0150_
*552 _0151_
*553 _0152_
*554 _0153_
*555 _0154_
*556 _0155_
*557 _0156_
*558 _0157_
*559 _0158_
*560 _0159_
*561 _0160_
*562 _0161_
*563 _0162_
*564 _0163_
*565 _0164_
*566 _0165_
*567 _0166_
*568 _0167_
*569 _0168_
*570 _0169_
*571 _0170_
*572 _0171_
*573 _0172_
*574 _0173_
*575 _0174_
*576 _0175_
*577 _0176_
*578 _0177_
*579 _0178_
*580 _0179_
*581 _0180_
*582 _0181_
*583 _0182_
*584 _0183_
*585 _0184_
*586 _0185_
*587 _0186_
*588 _0187_
*589 _0188_
*590 _0189_
*591 _0190_
*592 _0191_
*593 _0192_
*594 _0193_
*595 _0194_
*596 _0195_
*597 _0196_
*598 _0197_
*599 _0198_
*600 _0199_
*601 _0200_
*602 _0201_
*603 _0202_
*604 _0203_
*605 _0204_
*606 _0205_
*607 _0206_
*608 _0207_
*609 _0208_
*610 _0209_
*611 _0210_
*612 _0211_
*613 _0212_
*614 _0213_
*615 _0214_
*616 _0215_
*617 _0216_
*618 _0217_
*619 _0218_
*620 _0219_
*621 _0220_
*622 _0221_
*623 _0222_
*624 _0223_
*625 _0224_
*626 _0225_
*627 _0226_
*628 _0227_
*629 _0228_
*630 _0229_
*631 _0230_
*632 _0231_
*633 _0232_
*634 _0233_
*635 _0234_
*636 _0235_
*637 _0236_
*638 _0237_
*639 _0238_
*640 _0239_
*641 _0240_
*642 _0241_
*643 _0242_
*644 _0243_
*645 _0244_
*646 _0245_
*647 _0246_
*648 _0247_
*649 _0248_
*650 _0249_
*651 _0250_
*652 _0251_
*653 _0252_
*654 _0253_
*655 _0254_
*656 _0255_
*657 _0256_
*658 _0257_
*659 _0258_
*660 _0259_
*661 _0260_
*662 _0261_
*663 _0262_
*664 _0263_
*665 _0264_
*666 _0265_
*667 _0266_
*668 _0267_
*669 _0268_
*670 _0269_
*671 _0270_
*672 _0271_
*673 _0272_
*674 _0273_
*675 _0274_
*676 _0275_
*677 _0276_
*678 _0277_
*679 _0278_
*680 _0279_
*681 _0280_
*682 _0281_
*683 _0282_
*684 _0283_
*685 _0284_
*686 _0285_
*687 _0286_
*688 _0287_
*689 _0288_
*690 _0289_
*691 _0290_
*692 _0291_
*693 _0292_
*694 _0293_
*695 _0294_
*696 _0295_
*697 _0296_
*698 _0297_
*699 _0298_
*700 _0299_
*701 _0300_
*702 _0301_
*703 _0302_
*704 _0303_
*705 _0304_
*706 _0305_
*707 _0306_
*708 _0307_
*709 _0308_
*710 _0309_
*711 _0310_
*712 _0311_
*713 _0312_
*714 _0313_
*715 _0314_
*716 _0315_
*717 _0316_
*718 _0317_
*719 _0318_
*720 _0319_
*721 _0320_
*722 _0321_
*723 _0322_
*724 _0323_
*725 _0324_
*726 _0325_
*727 _0326_
*728 _0327_
*729 _0328_
*730 _0329_
*731 _0330_
*732 _0331_
*733 _0332_
*734 _0333_
*735 _0334_
*736 _0335_
*737 _0336_
*738 _0337_
*739 _0338_
*740 _0339_
*741 _0340_
*742 _0341_
*743 _0342_
*744 _0343_
*745 _0344_
*746 _0345_
*747 _0346_
*748 _0347_
*749 _0348_
*750 _0349_
*751 _0350_
*752 _0351_
*753 _0352_
*754 _0353_
*755 _0354_
*756 _0355_
*757 _0356_
*758 _0357_
*759 _0358_
*760 _0359_
*761 _0360_
*762 _0361_
*763 _0362_
*764 _0363_
*765 _0364_
*766 _0365_
*767 _0366_
*768 _0367_
*769 _0368_
*770 _0369_
*771 _0370_
*772 _0371_
*773 _0372_
*774 _0373_
*775 _0374_
*776 _0375_
*777 _0376_
*778 _0377_
*779 _0378_
*780 _0379_
*781 _0380_
*782 _0381_
*783 _0382_
*784 _0383_
*785 _0384_
*786 _0385_
*787 _0386_
*788 _0387_
*789 _0388_
*790 _0389_
*791 _0390_
*792 _0391_
*793 _0392_
*794 _0393_
*795 _0394_
*796 _0395_
*797 _0396_
*798 _0397_
*799 _0398_
*800 _0399_
*801 _0400_
*802 _0401_
*803 _0402_
*804 _0403_
*805 _0404_
*806 _0405_
*807 _0406_
*808 _0407_
*809 _0408_
*810 _0409_
*811 _0410_
*812 _0411_
*813 _0412_
*814 _0413_
*815 _0414_
*816 _0415_
*817 _0416_
*818 _0417_
*819 _0418_
*820 _0419_
*821 _0420_
*822 _0421_
*823 _0422_
*824 _0423_
*825 _0424_
*826 _0425_
*827 _0426_
*828 _0427_
*829 _0428_
*830 _0429_
*831 _0430_
*832 _0431_
*833 _0432_
*834 _0433_
*835 _0434_
*836 _0435_
*837 _0436_
*838 _0437_
*839 _0438_
*840 _0439_
*841 _0440_
*842 clknet_0_clk
*843 clknet_4_0_0_clk
*844 clknet_4_10_0_clk
*845 clknet_4_11_0_clk
*846 clknet_4_12_0_clk
*847 clknet_4_13_0_clk
*848 clknet_4_14_0_clk
*849 clknet_4_15_0_clk
*850 clknet_4_1_0_clk
*851 clknet_4_2_0_clk
*852 clknet_4_3_0_clk
*853 clknet_4_4_0_clk
*854 clknet_4_5_0_clk
*855 clknet_4_6_0_clk
*856 clknet_4_7_0_clk
*857 clknet_4_8_0_clk
*858 clknet_4_9_0_clk
*859 net1
*860 net10
*861 net100
*862 net101
*863 net102
*864 net103
*865 net104
*866 net105
*867 net106
*868 net107
*869 net108
*870 net109
*871 net11
*872 net110
*873 net111
*874 net112
*875 net113
*876 net114
*877 net115
*878 net116
*879 net117
*880 net118
*881 net119
*882 net12
*883 net120
*884 net121
*885 net122
*886 net123
*887 net124
*888 net125
*889 net126
*890 net127
*891 net128
*892 net129
*893 net13
*894 net130
*895 net131
*896 net132
*897 net133
*898 net134
*899 net135
*900 net136
*901 net137
*902 net138
*903 net139
*904 net140
*905 net141
*906 net142
*907 net143
*908 net144
*909 net145
*910 net146
*911 net147
*912 net148
*913 net2
*914 net3
*915 net30
*916 net31
*917 net32
*918 net33
*919 net34
*920 net35
*921 net36
*922 net37
*923 net38
*924 net39
*925 net4
*926 net40
*927 net41
*928 net42
*929 net43
*930 net44
*931 net45
*932 net46
*933 net47
*934 net48
*935 net49
*936 net5
*937 net50
*938 net51
*939 net52
*940 net53
*941 net54
*942 net55
*943 net56
*944 net57
*945 net58
*946 net59
*947 net6
*948 net60
*949 net61
*950 net62
*951 net63
*952 net64
*953 net65