*SPEF "ieee 1481-1999"
*DESIGN "tt_um_dusterthefirst_project"
*DATE "16:13:22 Wednesday May 29, 2024"
*VENDOR "The OpenROAD Project"
*PROGRAM "OpenROAD"
*VERSION "da0053d7b0014ab9c87ea148875ff6c2a0f9b658"
*DESIGN_FLOW "NAME_SCOPE LOCAL" "PIN_CAP NONE"
*DIVIDER /
*DELIMITER :
*BUS_DELIMITER []
*T_UNIT 1 NS
*C_UNIT 1 PF
*R_UNIT 1 OHM
*L_UNIT 1 HENRY

*NAME_MAP
*3 clk
*4 ena
*5 rst_n
*6 ui_in[0]
*7 ui_in[1]
*8 ui_in[2]
*9 ui_in[3]
*10 ui_in[4]
*11 ui_in[5]
*12 ui_in[6]
*13 ui_in[7]
*14 uio_in[0]
*15 uio_in[1]
*16 uio_in[2]
*17 uio_in[3]
*18 uio_in[4]
*19 uio_in[5]
*20 uio_in[6]
*21 uio_in[7]
*22 net27
*23 net28
*24 net29
*25 net30
*26 net31
*27 net32
*28 net33
*29 net34
*30 uio_out[0]
*31 uio_out[1]
*32 uio_out[2]
*33 uio_out[3]
*34 uio_out[4]
*35 uio_out[5]
*36 net25
*37 net26
*38 uo_out[0]
*39 uo_out[1]
*40 uo_out[2]
*41 uo_out[3]
*42 uo_out[4]
*43 uo_out[5]
*44 uo_out[6]
*45 uo_out[7]
*46 _000_
*47 _001_
*48 _002_
*49 _003_
*50 _004_
*51 _005_
*52 _006_
*53 _007_
*54 _008_
*55 _009_
*56 _010_
*57 _011_
*58 _012_
*59 _013_
*60 _014_
*61 _015_
*62 _016_
*63 _017_
*64 _018_
*65 _019_
*66 _020_
*67 _021_
*68 _022_
*69 _023_
*70 _024_
*71 _025_
*72 _026_
*73 _027_
*74 _028_
*75 _029_
*76 _030_
*77 _031_
*78 _032_
*79 _033_
*80 _034_
*81 _035_
*82 _036_
*83 _037_
*84 _038_
*85 _039_
*86 _040_
*87 _041_
*88 _042_
*89 _043_
*90 _044_
*91 _045_
*92 _046_
*93 _047_
*94 _048_
*95 _049_
*96 _050_
*97 _051_
*98 _052_
*99 _053_
*100 _054_
*101 _055_
*102 _056_
*103 _057_
*104 _058_
*105 _059_
*106 _060_
*107 _061_
*108 _062_
*109 _063_
*110 _064_
*111 _065_
*112 _066_
*113 _067_
*114 _068_
*115 _069_
*116 _070_
*117 _071_
*118 _072_
*119 _073_
*120 _074_
*121 _075_
*122 _076_
*123 _077_
*124 _078_
*125 _079_
*126 _080_
*127 _081_
*128 _082_
*129 _083_
*130 _084_
*131 _085_
*132 _086_
*133 _087_
*134 _088_
*135 _089_
*136 _090_
*137 _091_
*138 _092_
*139 _093_
*140 _094_
*141 _095_
*142 _096_
*143 _097_
*144 _098_
*145 _099_
*146 _100_
*147 _101_
*148 _102_
*149 _103_
*150 _104_
*151 _105_
*152 _106_
*153 _107_
*154 _108_
*155 _109_
*156 _110_
*157 _111_
*158 _112_
*159 _113_
*160 _114_
*161 _115_
*162 _116_
*163 _117_
*164 _118_
*165 _119_
*166 _120_
*167 _121_
*168 _122_
*169 _123_
*170 _124_
*171 _125_
*172 _126_
*173 _127_
*174 _128_
*175 _129_
*176 _130_
*177 _131_
*178 _132_
*179 _133_
*180 _134_
*181 _135_
*182 _136_
*183 _137_
*184 _138_
*185 _139_
*186 _140_
*187 _141_
*188 _142_
*189 _143_
*190 _144_
*191 _145_
*192 _146_
*193 _147_
*194 _148_
*195 _149_
*196 _150_
*197 _151_
*198 _152_
*199 _153_
*200 _154_
*201 _155_
*202 _156_
*203 _157_
*204 _158_
*205 _159_
*206 _160_
*207 _161_
*208 _162_
*209 _163_
*210 _164_
*211 _165_
*212 _166_
*213 _167_
*214 _168_
*215 _169_
*216 _170_
*217 _171_
*218 _172_
*219 _173_
*220 _174_
*221 _175_
*222 _176_
*223 _177_
*224 _178_
*225 _179_
*226 _180_
*227 _181_
*228 _182_
*229 _183_
*230 _184_
*231 _185_
*232 _186_
*233 _187_
*234 _188_
*235 _189_
*236 _190_
*237 _191_
*238 _192_
*239 _193_
*240 _194_
*241 _195_
*242 _196_
*243 _197_
*244 _198_
*245 _199_
*246 _200_
*247 _201_
*248 _202_
*249 _203_
*250 _204_
*251 _205_
*252 _206_
*253 _207_
*254 _208_
*255 _209_
*256 _210_
*257 _211_
*258 _212_
*259 _213_
*260 _214_
*261 _215_
*262 _216_
*263 _217_
*264 _218_
*265 _219_
*266 _220_
*267 _221_
*268 _222_
*269 _223_
*270 _224_
*271 _225_
*272 _226_
*273 _227_
*274 _228_
*275 _229_
*276 _230_
*277 _231_
*278 _232_
*279 _233_
*280 _234_
*281 _235_
*282 _236_
*283 _237_
*284 _238_
*285 _239_
*286 _240_
*287 _241_
*288 _242_
*289 _243_
*290 _244_
*291 _245_
*292 _246_
*293 _247_
*294 _248_
*295 _249_
*296 _250_
*297 _251_
*298 _252_
*299 _253_
*300 _254_
*301 _255_
*302 _256_
*303 _257_
*304 _258_
*305 _259_
*306 _260_
*307 _261_
*308 _262_
*309 _263_
*310 _264_
*311 _265_
*312 _266_
*313 _267_
*314 _268_
*315 _269_
*316 _270_
*317 _271_
*318 _272_
*319 _273_
*320 _274_
*321 _275_
*322 _276_
*323 _277_
*324 _278_
*325 _279_
*326 _280_
*327 _281_
*328 _282_
*329 _283_
*330 _284_
*331 _285_
*332 _286_
*333 _287_
*334 _288_
*335 _289_
*336 _290_
*337 _291_
*338 _292_
*339 _293_
*340 _294_
*341 _295_
*342 _296_
*343 _297_
*344 _298_
*345 _299_
*346 _300_
*347 _301_
*348 _302_
*349 _303_
*350 _304_
*351 _305_
*352 _306_
*353 _307_
*354 clknet_0_clk
*355 clknet_3_0__leaf_clk
*356 clknet_3_1__leaf_clk
*357 clknet_3_2__leaf_clk
*358 clknet_3_3__leaf_clk
*359 clknet_3_4__leaf_clk
*360 clknet_3_5__leaf_clk
*361 clknet_3_6__leaf_clk
*362 clknet_3_7__leaf_clk
*363 data_multiplex\.full
*364 data_multiplex\.reset_n
*365 data_multiplex\.room_temp\[0\]
*366 data_multiplex\.room_temp\[10\]
*367 data_multiplex\.room_temp\[11\]
*368 data_multiplex\.room_temp\[12\]
*369 data_multiplex\.room_temp\[13\]
*370 data_multiplex\.room_temp\[14\]
*371 data_multiplex\.room_temp\[15\]
*372 data_multiplex\.room_temp\[1\]
*373 data_multiplex\.room_temp\[2\]
*374 data_multiplex\.room_temp\[3\]
*375 data_multiplex\.room_temp\[4\]
*376 data_multiplex\.room_temp\[5\]
*377 data_multiplex\.room_temp\[6\]
*378 data_multiplex\.room_temp\[7\]
*379 data_multiplex\.room_temp\[8\]
*380 data_multiplex\.room_temp\[9\]
*381 data_multiplex\.serial_clock
*382 data_multiplex\.serial_data
*383 data_multiplex\.serial_decode\.constant\[0\]
*384 data_multiplex\.serial_decode\.constant\[10\]
*385 data_multiplex\.serial_decode\.constant\[11\]
*386 data_multiplex\.serial_decode\.constant\[12\]
*387 data_multiplex\.serial_decode\.constant\[13\]
*388 data_multiplex\.serial_decode\.constant\[14\]
*389 data_multiplex\.serial_decode\.constant\[15\]
*390 data_multiplex\.serial_decode\.constant\[16\]
*391 data_multiplex\.serial_decode\.constant\[17\]
*392 data_multiplex\.serial_decode\.constant\[18\]
*393 data_multiplex\.serial_decode\.constant\[19\]
*394 data_multiplex\.serial_decode\.constant\[1\]
*395 data_multiplex\.serial_decode\.constant\[20\]
*396 data_multiplex\.serial_decode\.constant\[21\]
*397 data_multiplex\.serial_decode\.constant\[22\]
*398 data_multiplex\.serial_decode\.constant\[23\]
*399 data_multiplex\.serial_decode\.constant\[24\]
*400 data_multiplex\.serial_decode\.constant\[25\]
*401 data_multiplex\.serial_decode\.constant\[26\]
*402 data_multiplex\.serial_decode\.constant\[27\]
*403 data_multiplex\.serial_decode\.constant\[28\]
*404 data_multiplex\.serial_decode\.constant\[29\]
*405 data_multiplex\.serial_decode\.constant\[2\]
*406 data_multiplex\.serial_decode\.constant\[30\]
*407 data_multiplex\.serial_decode\.constant\[31\]
*408 data_multiplex\.serial_decode\.constant\[3\]
*409 data_multiplex\.serial_decode\.constant\[4\]
*410 data_multiplex\.serial_decode\.constant\[5\]
*411 data_multiplex\.serial_decode\.constant\[6\]
*412 data_multiplex\.serial_decode\.constant\[7\]
*413 data_multiplex\.serial_decode\.constant\[8\]
*414 data_multiplex\.serial_decode\.constant\[9\]
*415 data_multiplex\.serial_decode\.data_validate\.preamble\[0\]
*416 data_multiplex\.serial_decode\.data_validate\.preamble\[10\]
*417 data_multiplex\.serial_decode\.data_validate\.preamble\[11\]
*418 data_multiplex\.serial_decode\.data_validate\.preamble\[12\]
*419 data_multiplex\.serial_decode\.data_validate\.preamble\[13\]
*420 data_multiplex\.serial_decode\.data_validate\.preamble\[14\]
*421 data_multiplex\.serial_decode\.data_validate\.preamble\[15\]
*422 data_multiplex\.serial_decode\.data_validate\.preamble\[16\]
*423 data_multiplex\.serial_decode\.data_validate\.preamble\[17\]
*424 data_multiplex\.serial_decode\.data_validate\.preamble\[18\]
*425 data_multiplex\.serial_decode\.data_validate\.preamble\[19\]
*426 data_multiplex\.serial_decode\.data_validate\.preamble\[1\]
*427 data_multiplex\.serial_decode\.data_validate\.preamble\[20\]
*428 data_multiplex\.serial_decode\.data_validate\.preamble\[21\]
*429 data_multiplex\.serial_decode\.data_validate\.preamble\[22\]
*430 data_multiplex\.serial_decode\.data_validate\.preamble\[23\]
*431 data_multiplex\.serial_decode\.data_validate\.preamble\[24\]
*432 data_multiplex\.serial_decode\.data_validate\.preamble\[25\]
*433 data_multiplex\.serial_decode\.data_validate\.preamble\[26\]
*434 data_multiplex\.serial_decode\.data_validate\.preamble\[27\]
*435 data_multiplex\.serial_decode\.data_validate\.preamble\[28\]
*436 data_multiplex\.serial_decode\.data_validate\.preamble\[29\]
*437 data_multiplex\.serial_decode\.data_validate\.preamble\[2\]
*438 data_multiplex\.serial_decode\.data_validate\.preamble\[30\]
*439 data_multiplex\.serial_decode\.data_validate\.preamble\[31\]
*440 data_multiplex\.serial_decode\.data_validate\.preamble\[3\]
*441 data_multiplex\.serial_decode\.data_validate\.preamble\[4\]
*442 data_multiplex\.serial_decode\.data_validate\.preamble\[5\]
*443 data_multiplex\.serial_decode\.data_validate\.preamble\[6\]
*444 data_multiplex\.serial_decode\.data_validate\.preamble\[7\]
*445 data_multiplex\.serial_decode\.data_validate\.preamble\[8\]
*446 data_multiplex\.serial_decode\.data_validate\.preamble\[9\]
*447 data_multiplex\.serial_decode\.data_validate\.type_2\[0\]
*448 data_multiplex\.serial_decode\.data_validate\.type_2\[10\]
*449 data_multiplex\.serial_decode\.data_validate\.type_2\[11\]
*450 data_multiplex\.serial_decode\.data_validate\.type_2\[12\]
*451 data_multiplex\.serial_decode\.data_validate\.type_2\[13\]
*452 data_multiplex\.serial_decode\.data_validate\.type_2\[14\]
*453 data_multiplex\.serial_decode\.data_validate\.type_2\[15\]
*454 data_multiplex\.serial_decode\.data_validate\.type_2\[1\]
*455 data_multiplex\.serial_decode\.data_validate\.type_2\[2\]
*456 data_multiplex\.serial_decode\.data_validate\.type_2\[3\]
*457 data_multiplex\.serial_decode\.data_validate\.type_2\[4\]
*458 data_multiplex\.serial_decode\.data_validate\.type_2\[5\]
*459 data_multiplex\.serial_decode\.data_validate\.type_2\[6\]
*460 data_multiplex\.serial_decode\.data_validate\.type_2\[7\]
*461 data_multiplex\.serial_decode\.data_validate\.type_2\[8\]
*462 data_multiplex\.serial_decode\.data_validate\.type_2\[9\]
*463 data_multiplex\.serial_decode\.preamble_or_data
*464 data_multiplex\.serial_decode\.shift_register\[96\]
*465 input_edge_detect\.neg_edge
*466 input_edge_detect\.pos_edge
*467 input_edge_detect\.previous_in
*468 net1
*469 net10
*470 net100
*471 net101
*472 net102
*473 net103
*474 net104
*475 net105
*476 net106
*477 net107
*478 net108
*479 net109
*480 net11
*481 net110
*482 net111
*483 net112
*484 net113
*485 net114
*486 net115
*487 net116
*488 net117
*489 net118
*490 net119
*491 net12
*492 net120
*493 net121
*494 net122
*495 net123
*496 net124
*497 net125
*498 net126
*499 net127
*500 net128
*501 net129
*502 net13
*503 net130
*504 net131
*505 net132
*506 net133
*507 net134
*508 net135
*509 net136
*510 net137
*511 net138
*512 net139
*513 net14
*514 net140
*515 net141
*516 net15
*517 net16
*518 net17
*519 net18
*520 net19
*521 net2
*522 net20
*523 net21
*524 net22
*525 net23
*526 net24
*527 net3
*528 net35
*529 net36
*530 net37
*531 net38
*532 net39
*533 net4
*534 net40
*535 net41
*536 net42
*537 net43
*538 net44
*539 net45
*540 net46
*541 net47
*542 net48
*543 net49
*544 net5
*545 net50
*546 net51
*547 net52
*548 net53
*549 net54
*550 net55
*551 net56
*552 net57
*553 net58
*554 net59
*555 net6
*556 net60
*557 net61
*558 net62
*559 net63
*560 net64
*561 net65
*562 net66
*563 net67
*564 net68
*565 net69
*566 net7
*567 net70
*568 net71
*569 net72
*570 net73
*571 net74
*572 net75
*573 net76
*574 net77
*575 net78
*576 net79
*577 net8
*578 net80
*579 net81
*580 net82
*581 net83
*582 net84
*583 net85
*584 net86
*585 net87
*586 net88
*587 net89
*588 net9
*589 net90
*590 net91
*591 net92
*592 net93
*593 net94
*594 net95
*595 net96
*596 net97
*597 net98
*598 net99
*599 state_machine\.state\[0\]
*600 state_machine\.state\[1\]
*601 state_machine\.state\[2\]
*602 state_machine\.state\[3\]
*603 state_machine\.timer\[0\]
*604 state_machine\.timer\[1\]
*605 state_machine\.timer\[2\]
*606 state_machine\.timer\[3\]
*607 state_machine\.transmission_begin
*608 FILLER_0_0_109
*609 FILLER_0_0_113
*610 FILLER_0_0_125
*611 FILLER_0_0_137
*612 FILLER_0_0_141
*613 FILLER_0_0_15
*614 FILLER_0_0_153
*615 FILLER_0_0_165
*616 FILLER_0_0_169
*617 FILLER_0_0_181
*618 FILLER_0_0_193
*619 FILLER_0_0_197
*620 FILLER_0_0_209
*621 FILLER_0_0_221
*622 FILLER_0_0_225
*623 FILLER_0_0_237
*624 FILLER_0_0_249
*625 FILLER_0_0_253
*626 FILLER_0_0_265
*627 FILLER_0_0_27
*628 FILLER_0_0_277
*629 FILLER_0_0_281
*630 FILLER_0_0_29
*631 FILLER_0_0_293
*632 FILLER_0_0_3
*633 FILLER_0_0_305
*634 FILLER_0_0_309
*635 FILLER_0_0_321
*636 FILLER_0_0_333
*637 FILLER_0_0_41
*638 FILLER_0_0_53
*639 FILLER_0_0_57
*640 FILLER_0_0_69
*641 FILLER_0_0_81
*642 FILLER_0_0_85
*643 FILLER_0_0_97
*644 FILLER_0_10_109
*645 FILLER_0_10_121
*646 FILLER_0_10_133
*647 FILLER_0_10_139
*648 FILLER_0_10_141
*649 FILLER_0_10_15
*650 FILLER_0_10_153
*651 FILLER_0_10_165
*652 FILLER_0_10_177
*653 FILLER_0_10_189
*654 FILLER_0_10_195
*655 FILLER_0_10_197
*656 FILLER_0_10_209
*657 FILLER_0_10_221
*658 FILLER_0_10_233
*659 FILLER_0_10_245
*660 FILLER_0_10_251
*661 FILLER_0_10_253
*662 FILLER_0_10_265
*663 FILLER_0_10_27
*664 FILLER_0_10_277
*665 FILLER_0_10_289
*666 FILLER_0_10_29
*667 FILLER_0_10_3
*668 FILLER_0_10_301
*669 FILLER_0_10_307
*670 FILLER_0_10_309
*671 FILLER_0_10_321
*672 FILLER_0_10_333
*673 FILLER_0_10_41
*674 FILLER_0_10_53
*675 FILLER_0_10_65
*676 FILLER_0_10_77
*677 FILLER_0_10_83
*678 FILLER_0_10_85
*679 FILLER_0_10_97
*680 FILLER_0_11_105
*681 FILLER_0_11_111
*682 FILLER_0_11_113
*683 FILLER_0_11_125
*684 FILLER_0_11_137
*685 FILLER_0_11_149
*686 FILLER_0_11_15
*687 FILLER_0_11_161
*688 FILLER_0_11_167
*689 FILLER_0_11_169
*690 FILLER_0_11_181
*691 FILLER_0_11_193
*692 FILLER_0_11_205
*693 FILLER_0_11_217
*694 FILLER_0_11_223
*695 FILLER_0_11_225
*696 FILLER_0_11_237
*697 FILLER_0_11_249
*698 FILLER_0_11_261
*699 FILLER_0_11_27
*700 FILLER_0_11_273
*701 FILLER_0_11_279
*702 FILLER_0_11_281
*703 FILLER_0_11_293
*704 FILLER_0_11_3
*705 FILLER_0_11_305
*706 FILLER_0_11_317
*707 FILLER_0_11_329
*708 FILLER_0_11_39
*709 FILLER_0_11_51
*710 FILLER_0_11_55
*711 FILLER_0_11_57
*712 FILLER_0_11_69
*713 FILLER_0_11_81
*714 FILLER_0_11_93
*715 FILLER_0_12_109
*716 FILLER_0_12_117
*717 FILLER_0_12_141
*718 FILLER_0_12_15
*719 FILLER_0_12_153
*720 FILLER_0_12_174
*721 FILLER_0_12_186
*722 FILLER_0_12_194
*723 FILLER_0_12_197
*724 FILLER_0_12_209
*725 FILLER_0_12_221
*726 FILLER_0_12_233
*727 FILLER_0_12_245
*728 FILLER_0_12_251
*729 FILLER_0_12_253
*730 FILLER_0_12_265
*731 FILLER_0_12_27
*732 FILLER_0_12_277
*733 FILLER_0_12_289
*734 FILLER_0_12_29
*735 FILLER_0_12_3
*736 FILLER_0_12_301
*737 FILLER_0_12_307
*738 FILLER_0_12_309
*739 FILLER_0_12_321
*740 FILLER_0_12_333
*741 FILLER_0_12_41
*742 FILLER_0_12_53
*743 FILLER_0_12_65
*744 FILLER_0_12_77
*745 FILLER_0_12_83
*746 FILLER_0_12_85
*747 FILLER_0_12_97
*748 FILLER_0_13_105
*749 FILLER_0_13_111
*750 FILLER_0_13_116
*751 FILLER_0_13_122
*752 FILLER_0_13_126
*753 FILLER_0_13_149
*754 FILLER_0_13_15
*755 FILLER_0_13_167
*756 FILLER_0_13_189
*757 FILLER_0_13_201
*758 FILLER_0_13_210
*759 FILLER_0_13_222
*760 FILLER_0_13_225
*761 FILLER_0_13_237
*762 FILLER_0_13_249
*763 FILLER_0_13_261
*764 FILLER_0_13_27
*765 FILLER_0_13_273
*766 FILLER_0_13_279
*767 FILLER_0_13_281
*768 FILLER_0_13_293
*769 FILLER_0_13_3
*770 FILLER_0_13_305
*771 FILLER_0_13_317
*772 FILLER_0_13_329
*773 FILLER_0_13_39
*774 FILLER_0_13_51
*775 FILLER_0_13_55
*776 FILLER_0_13_57
*777 FILLER_0_13_69
*778 FILLER_0_13_81
*779 FILLER_0_13_93
*780 FILLER_0_14_137
*781 FILLER_0_14_141
*782 FILLER_0_14_15
*783 FILLER_0_14_197
*784 FILLER_0_14_201
*785 FILLER_0_14_222
*786 FILLER_0_14_234
*787 FILLER_0_14_246
*788 FILLER_0_14_253
*789 FILLER_0_14_265
*790 FILLER_0_14_27
*791 FILLER_0_14_277
*792 FILLER_0_14_289
*793 FILLER_0_14_29
*794 FILLER_0_14_3
*795 FILLER_0_14_301
*796 FILLER_0_14_307
*797 FILLER_0_14_309
*798 FILLER_0_14_321
*799 FILLER_0_14_333
*800 FILLER_0_14_41
*801 FILLER_0_14_53
*802 FILLER_0_14_65
*803 FILLER_0_14_69
*804 FILLER_0_14_81
*805 FILLER_0_15_103
*806 FILLER_0_15_111
*807 FILLER_0_15_125
*808 FILLER_0_15_131
*809 FILLER_0_15_141
*810 FILLER_0_15_147
*811 FILLER_0_15_15
*812 FILLER_0_15_169
*813 FILLER_0_15_173
*814 FILLER_0_15_192
*815 FILLER_0_15_225
*816 FILLER_0_15_237
*817 FILLER_0_15_249
*818 FILLER_0_15_261
*819 FILLER_0_15_27
*820 FILLER_0_15_273
*821 FILLER_0_15_279
*822 FILLER_0_15_281
*823 FILLER_0_15_293
*824 FILLER_0_15_3
*825 FILLER_0_15_305
*826 FILLER_0_15_317
*827 FILLER_0_15_329
*828 FILLER_0_15_39
*829 FILLER_0_15_51
*830 FILLER_0_15_55
*831 FILLER_0_15_57
*832 FILLER_0_16_141
*833 FILLER_0_16_149
*834 FILLER_0_16_15
*835 FILLER_0_16_195
*836 FILLER_0_16_220
*837 FILLER_0_16_232
*838 FILLER_0_16_244
*839 FILLER_0_16_253
*840 FILLER_0_16_265
*841 FILLER_0_16_27
*842 FILLER_0_16_277
*843 FILLER_0_16_289
*844 FILLER_0_16_29
*845 FILLER_0_16_3
*846 FILLER_0_16_301
*847 FILLER_0_16_307
*848 FILLER_0_16_309
*849 FILLER_0_16_321
*850 FILLER_0_16_333
*851 FILLER_0_16_41
*852 FILLER_0_16_49
*853 FILLER_0_16_81
*854 FILLER_0_16_94
*855 FILLER_0_17_104
*856 FILLER_0_17_113
*857 FILLER_0_17_125
*858 FILLER_0_17_129
*859 FILLER_0_17_139
*860 FILLER_0_17_149
*861 FILLER_0_17_15
*862 FILLER_0_17_160
*863 FILLER_0_17_185
*864 FILLER_0_17_215
*865 FILLER_0_17_223
*866 FILLER_0_17_245
*867 FILLER_0_17_257
*868 FILLER_0_17_269
*869 FILLER_0_17_27
*870 FILLER_0_17_277
*871 FILLER_0_17_281
*872 FILLER_0_17_293
*873 FILLER_0_17_3
*874 FILLER_0_17_305
*875 FILLER_0_17_317
*876 FILLER_0_17_329
*877 FILLER_0_17_51
*878 FILLER_0_17_55
*879 FILLER_0_17_57
*880 FILLER_0_17_62
*881 FILLER_0_17_74
*882 FILLER_0_17_80
*883 FILLER_0_18_100
*884 FILLER_0_18_104
*885 FILLER_0_18_131
*886 FILLER_0_18_139
*887 FILLER_0_18_141
*888 FILLER_0_18_147
*889 FILLER_0_18_15
*890 FILLER_0_18_155
*891 FILLER_0_18_174
*892 FILLER_0_18_205
*893 FILLER_0_18_217
*894 FILLER_0_18_251
*895 FILLER_0_18_253
*896 FILLER_0_18_261
*897 FILLER_0_18_27
*898 FILLER_0_18_284
*899 FILLER_0_18_29
*900 FILLER_0_18_296
*901 FILLER_0_18_3
*902 FILLER_0_18_307
*903 FILLER_0_18_309
*904 FILLER_0_18_321
*905 FILLER_0_18_333
*906 FILLER_0_18_60
*907 FILLER_0_19_107
*908 FILLER_0_19_111
*909 FILLER_0_19_113
*910 FILLER_0_19_122
*911 FILLER_0_19_143
*912 FILLER_0_19_164
*913 FILLER_0_19_177
*914 FILLER_0_19_18
*915 FILLER_0_19_181
*916 FILLER_0_19_205
*917 FILLER_0_19_279
*918 FILLER_0_19_3
*919 FILLER_0_19_30
*920 FILLER_0_19_308
*921 FILLER_0_19_320
*922 FILLER_0_19_332
*923 FILLER_0_19_34
*924 FILLER_0_19_41
*925 FILLER_0_19_51
*926 FILLER_0_19_55
*927 FILLER_0_19_57
*928 FILLER_0_1_105
*929 FILLER_0_1_111
*930 FILLER_0_1_113
*931 FILLER_0_1_125
*932 FILLER_0_1_137
*933 FILLER_0_1_149
*934 FILLER_0_1_15
*935 FILLER_0_1_161
*936 FILLER_0_1_167
*937 FILLER_0_1_169
*938 FILLER_0_1_181
*939 FILLER_0_1_193
*940 FILLER_0_1_205
*941 FILLER_0_1_217
*942 FILLER_0_1_223
*943 FILLER_0_1_225
*944 FILLER_0_1_237
*945 FILLER_0_1_249
*946 FILLER_0_1_261
*947 FILLER_0_1_27
*948 FILLER_0_1_273
*949 FILLER_0_1_279
*950 FILLER_0_1_281
*951 FILLER_0_1_293
*952 FILLER_0_1_3
*953 FILLER_0_1_305
*954 FILLER_0_1_317
*955 FILLER_0_1_329
*956 FILLER_0_1_39
*957 FILLER_0_1_51
*958 FILLER_0_1_55
*959 FILLER_0_1_57
*960 FILLER_0_1_69
*961 FILLER_0_1_81
*962 FILLER_0_1_93
*963 FILLER_0_20_109
*964 FILLER_0_20_141
*965 FILLER_0_20_177
*966 FILLER_0_20_195
*967 FILLER_0_20_204
*968 FILLER_0_20_247
*969 FILLER_0_20_251
*970 FILLER_0_20_261
*971 FILLER_0_20_299
*972 FILLER_0_20_3
*973 FILLER_0_20_329
*974 FILLER_0_20_41
*975 FILLER_0_20_7
*976 FILLER_0_21_113
*977 FILLER_0_21_144
*978 FILLER_0_21_155
*979 FILLER_0_21_167
*980 FILLER_0_21_169
*981 FILLER_0_21_177
*982 FILLER_0_21_187
*983 FILLER_0_21_191
*984 FILLER_0_21_199
*985 FILLER_0_21_211
*986 FILLER_0_21_260
*987 FILLER_0_21_277
*988 FILLER_0_21_3
*989 FILLER_0_21_332
*990 FILLER_0_21_57
*991 FILLER_0_21_61
*992 FILLER_0_21_70
*993 FILLER_0_22_102
*994 FILLER_0_22_114
*995 FILLER_0_22_132
*996 FILLER_0_22_141
*997 FILLER_0_22_15
*998 FILLER_0_22_150
*999 FILLER_0_22_165
*1000 FILLER_0_22_176
*1001 FILLER_0_22_182
*1002 FILLER_0_22_190
*1003 FILLER_0_22_20
*1004 FILLER_0_22_204
*1005 FILLER_0_22_216
*1006 FILLER_0_22_246
*1007 FILLER_0_22_260
*1008 FILLER_0_22_29
*1009 FILLER_0_22_3
*1010 FILLER_0_22_303
*1011 FILLER_0_22_307
*1012 FILLER_0_22_329
*1013 FILLER_0_22_33
*1014 FILLER_0_22_66
*1015 FILLER_0_23_113
*1016 FILLER_0_23_122
*1017 FILLER_0_23_139
*1018 FILLER_0_23_162
*1019 FILLER_0_23_177
*1020 FILLER_0_23_192
*1021 FILLER_0_23_209
*1022 FILLER_0_23_215
*1023 FILLER_0_23_225
*1024 FILLER_0_23_254
*1025 FILLER_0_23_297
*1026 FILLER_0_23_3
*1027 FILLER_0_23_32
*1028 FILLER_0_23_47
*1029 FILLER_0_23_77
*1030 FILLER_0_23_81
*1031 FILLER_0_23_92
*1032 FILLER_0_23_99
*1033 FILLER_0_24_100
*1034 FILLER_0_24_110
*1035 FILLER_0_24_135
*1036 FILLER_0_24_139
*1037 FILLER_0_24_141
*1038 FILLER_0_24_153
*1039 FILLER_0_24_165
*1040 FILLER_0_24_177
*1041 FILLER_0_24_204
*1042 FILLER_0_24_216
*1043 FILLER_0_24_224
*1044 FILLER_0_24_259
*1045 FILLER_0_24_268
*1046 FILLER_0_24_276
*1047 FILLER_0_24_29
*1048 FILLER_0_24_3
*1049 FILLER_0_24_302
*1050 FILLER_0_24_329
*1051 FILLER_0_24_58
*1052 FILLER_0_24_62
*1053 FILLER_0_24_7
*1054 FILLER_0_24_73
*1055 FILLER_0_24_83
*1056 FILLER_0_25_102
*1057 FILLER_0_25_110
*1058 FILLER_0_25_113
*1059 FILLER_0_25_123
*1060 FILLER_0_25_135
*1061 FILLER_0_25_149
*1062 FILLER_0_25_157
*1063 FILLER_0_25_167
*1064 FILLER_0_25_169
*1065 FILLER_0_25_185
*1066 FILLER_0_25_202
*1067 FILLER_0_25_214
*1068 FILLER_0_25_225
*1069 FILLER_0_25_239
*1070 FILLER_0_25_261
*1071 FILLER_0_25_265
*1072 FILLER_0_25_275
*1073 FILLER_0_25_279
*1074 FILLER_0_25_288
*1075 FILLER_0_25_3
*1076 FILLER_0_25_306
*1077 FILLER_0_25_331
*1078 FILLER_0_25_52
*1079 FILLER_0_25_66
*1080 FILLER_0_25_78
*1081 FILLER_0_25_82
*1082 FILLER_0_25_9
*1083 FILLER_0_25_90
*1084 FILLER_0_26_103
*1085 FILLER_0_26_128
*1086 FILLER_0_26_141
*1087 FILLER_0_26_15
*1088 FILLER_0_26_167
*1089 FILLER_0_26_209
*1090 FILLER_0_26_215
*1091 FILLER_0_26_250
*1092 FILLER_0_26_257
*1093 FILLER_0_26_261
*1094 FILLER_0_26_285
*1095 FILLER_0_26_29
*1096 FILLER_0_26_297
*1097 FILLER_0_26_3
*1098 FILLER_0_26_329
*1099 FILLER_0_26_47
*1100 FILLER_0_26_74
*1101 FILLER_0_26_82
*1102 FILLER_0_26_85
*1103 FILLER_0_27_105
*1104 FILLER_0_27_111
*1105 FILLER_0_27_113
*1106 FILLER_0_27_125
*1107 FILLER_0_27_137
*1108 FILLER_0_27_141
*1109 FILLER_0_27_147
*1110 FILLER_0_27_15
*1111 FILLER_0_27_163
*1112 FILLER_0_27_167
*1113 FILLER_0_27_169
*1114 FILLER_0_27_213
*1115 FILLER_0_27_225
*1116 FILLER_0_27_247
*1117 FILLER_0_27_251
*1118 FILLER_0_27_3
*1119 FILLER_0_27_301
*1120 FILLER_0_27_332
*1121 FILLER_0_27_40
*1122 FILLER_0_27_48
*1123 FILLER_0_27_57
*1124 FILLER_0_27_61
*1125 FILLER_0_27_70
*1126 FILLER_0_28_114
*1127 FILLER_0_28_135
*1128 FILLER_0_28_139
*1129 FILLER_0_28_153
*1130 FILLER_0_28_165
*1131 FILLER_0_28_177
*1132 FILLER_0_28_189
*1133 FILLER_0_28_195
*1134 FILLER_0_28_204
*1135 FILLER_0_28_216
*1136 FILLER_0_28_261
*1137 FILLER_0_28_270
*1138 FILLER_0_28_297
*1139 FILLER_0_28_3
*1140 FILLER_0_28_329
*1141 FILLER_0_28_44
*1142 FILLER_0_28_7
*1143 FILLER_0_28_77
*1144 FILLER_0_28_83
*1145 FILLER_0_29_101
*1146 FILLER_0_29_109
*1147 FILLER_0_29_125
*1148 FILLER_0_29_137
*1149 FILLER_0_29_149
*1150 FILLER_0_29_165
*1151 FILLER_0_29_169
*1152 FILLER_0_29_175
*1153 FILLER_0_29_184
*1154 FILLER_0_29_196
*1155 FILLER_0_29_221
*1156 FILLER_0_29_225
*1157 FILLER_0_29_246
*1158 FILLER_0_29_257
*1159 FILLER_0_29_3
*1160 FILLER_0_29_309
*1161 FILLER_0_29_334
*1162 FILLER_0_29_51
*1163 FILLER_0_29_55
*1164 FILLER_0_29_57
*1165 FILLER_0_29_66
*1166 FILLER_0_2_109
*1167 FILLER_0_2_121
*1168 FILLER_0_2_133
*1169 FILLER_0_2_139
*1170 FILLER_0_2_141
*1171 FILLER_0_2_15
*1172 FILLER_0_2_153
*1173 FILLER_0_2_165
*1174 FILLER_0_2_177
*1175 FILLER_0_2_189
*1176 FILLER_0_2_195
*1177 FILLER_0_2_197
*1178 FILLER_0_2_209
*1179 FILLER_0_2_221
*1180 FILLER_0_2_233
*1181 FILLER_0_2_245
*1182 FILLER_0_2_251
*1183 FILLER_0_2_253
*1184 FILLER_0_2_265
*1185 FILLER_0_2_27
*1186 FILLER_0_2_277
*1187 FILLER_0_2_289
*1188 FILLER_0_2_29
*1189 FILLER_0_2_3
*1190 FILLER_0_2_301
*1191 FILLER_0_2_307
*1192 FILLER_0_2_309
*1193 FILLER_0_2_321
*1194 FILLER_0_2_333
*1195 FILLER_0_2_41
*1196 FILLER_0_2_53
*1197 FILLER_0_2_65
*1198 FILLER_0_2_77
*1199 FILLER_0_2_83
*1200 FILLER_0_2_85
*1201 FILLER_0_2_97
*1202 FILLER_0_30_111
*1203 FILLER_0_30_123
*1204 FILLER_0_30_132
*1205 FILLER_0_30_141
*1206 FILLER_0_30_153
*1207 FILLER_0_30_175
*1208 FILLER_0_30_187
*1209 FILLER_0_30_191
*1210 FILLER_0_30_197
*1211 FILLER_0_30_230
*1212 FILLER_0_30_251
*1213 FILLER_0_30_293
*1214 FILLER_0_30_3
*1215 FILLER_0_30_301
*1216 FILLER_0_30_325
*1217 FILLER_0_30_333
*1218 FILLER_0_30_49
*1219 FILLER_0_30_85
*1220 FILLER_0_30_99
*1221 FILLER_0_31_109
*1222 FILLER_0_31_123
*1223 FILLER_0_31_149
*1224 FILLER_0_31_176
*1225 FILLER_0_31_184
*1226 FILLER_0_31_198
*1227 FILLER_0_31_222
*1228 FILLER_0_31_225
*1229 FILLER_0_31_271
*1230 FILLER_0_31_279
*1231 FILLER_0_31_288
*1232 FILLER_0_31_294
*1233 FILLER_0_31_3
*1234 FILLER_0_31_323
*1235 FILLER_0_31_54
*1236 FILLER_0_31_57
*1237 FILLER_0_31_74
*1238 FILLER_0_32_11
*1239 FILLER_0_32_122
*1240 FILLER_0_32_126
*1241 FILLER_0_32_135
*1242 FILLER_0_32_139
*1243 FILLER_0_32_141
*1244 FILLER_0_32_153
*1245 FILLER_0_32_166
*1246 FILLER_0_32_177
*1247 FILLER_0_32_189
*1248 FILLER_0_32_214
*1249 FILLER_0_32_229
*1250 FILLER_0_32_241
*1251 FILLER_0_32_251
*1252 FILLER_0_32_268
*1253 FILLER_0_32_280
*1254 FILLER_0_32_292
*1255 FILLER_0_32_3
*1256 FILLER_0_32_331
*1257 FILLER_0_32_46
*1258 FILLER_0_32_72
*1259 FILLER_0_32_85
*1260 FILLER_0_32_89
*1261 FILLER_0_32_99
*1262 FILLER_0_33_133
*1263 FILLER_0_33_162
*1264 FILLER_0_33_169
*1265 FILLER_0_33_181
*1266 FILLER_0_33_193
*1267 FILLER_0_33_201
*1268 FILLER_0_33_212
*1269 FILLER_0_33_233
*1270 FILLER_0_33_241
*1271 FILLER_0_33_259
*1272 FILLER_0_33_271
*1273 FILLER_0_33_279
*1274 FILLER_0_33_281
*1275 FILLER_0_33_293
*1276 FILLER_0_33_3
*1277 FILLER_0_33_320
*1278 FILLER_0_33_332
*1279 FILLER_0_33_35
*1280 FILLER_0_33_45
*1281 FILLER_0_33_67
*1282 FILLER_0_33_73
*1283 FILLER_0_33_84
*1284 FILLER_0_34_11
*1285 FILLER_0_34_112
*1286 FILLER_0_34_122
*1287 FILLER_0_34_134
*1288 FILLER_0_34_138
*1289 FILLER_0_34_141
*1290 FILLER_0_34_145
*1291 FILLER_0_34_159
*1292 FILLER_0_34_16
*1293 FILLER_0_34_171
*1294 FILLER_0_34_184
*1295 FILLER_0_34_197
*1296 FILLER_0_34_209
*1297 FILLER_0_34_216
*1298 FILLER_0_34_227
*1299 FILLER_0_34_233
*1300 FILLER_0_34_245
*1301 FILLER_0_34_280
*1302 FILLER_0_34_286
*1303 FILLER_0_34_3
*1304 FILLER_0_34_324
*1305 FILLER_0_34_332
*1306 FILLER_0_34_68
*1307 FILLER_0_34_81
*1308 FILLER_0_35_122
*1309 FILLER_0_35_158
*1310 FILLER_0_35_172
*1311 FILLER_0_35_208
*1312 FILLER_0_35_216
*1313 FILLER_0_35_222
*1314 FILLER_0_35_252
*1315 FILLER_0_35_260
*1316 FILLER_0_35_278
*1317 FILLER_0_35_292
*1318 FILLER_0_35_3
*1319 FILLER_0_35_326
*1320 FILLER_0_35_334
*1321 FILLER_0_35_36
*1322 FILLER_0_35_54
*1323 FILLER_0_35_90
*1324 FILLER_0_36_175
*1325 FILLER_0_36_213
*1326 FILLER_0_36_243
*1327 FILLER_0_36_251
*1328 FILLER_0_36_29
*1329 FILLER_0_36_293
*1330 FILLER_0_36_3
*1331 FILLER_0_36_330
*1332 FILLER_0_36_334
*1333 FILLER_0_36_37
*1334 FILLER_0_36_59
*1335 FILLER_0_36_7
*1336 FILLER_0_37_102
*1337 FILLER_0_37_110
*1338 FILLER_0_37_113
*1339 FILLER_0_37_123
*1340 FILLER_0_37_15
*1341 FILLER_0_37_157
*1342 FILLER_0_37_19
*1343 FILLER_0_37_205
*1344 FILLER_0_37_223
*1345 FILLER_0_37_225
*1346 FILLER_0_37_236
*1347 FILLER_0_37_256
*1348 FILLER_0_37_27
*1349 FILLER_0_37_278
*1350 FILLER_0_37_292
*1351 FILLER_0_37_3
*1352 FILLER_0_37_326
*1353 FILLER_0_37_334
*1354 FILLER_0_37_50
*1355 FILLER_0_37_57
*1356 FILLER_0_37_82
*1357 FILLER_0_38_10
*1358 FILLER_0_38_109
*1359 FILLER_0_38_120
*1360 FILLER_0_38_125
*1361 FILLER_0_38_137
*1362 FILLER_0_38_14
*1363 FILLER_0_38_149
*1364 FILLER_0_38_159
*1365 FILLER_0_38_167
*1366 FILLER_0_38_169
*1367 FILLER_0_38_18
*1368 FILLER_0_38_181
*1369 FILLER_0_38_203
*1370 FILLER_0_38_207
*1371 FILLER_0_38_22
*1372 FILLER_0_38_222
*1373 FILLER_0_38_242
*1374 FILLER_0_38_250
*1375 FILLER_0_38_253
*1376 FILLER_0_38_265
*1377 FILLER_0_38_270
*1378 FILLER_0_38_287
*1379 FILLER_0_38_307
*1380 FILLER_0_38_32
*1381 FILLER_0_38_321
*1382 FILLER_0_38_333
*1383 FILLER_0_38_36
*1384 FILLER_0_38_46
*1385 FILLER_0_38_50
*1386 FILLER_0_38_54
*1387 FILLER_0_38_6
*1388 FILLER_0_38_79
*1389 FILLER_0_38_83
*1390 FILLER_0_38_85
*1391 FILLER_0_38_97
*1392 FILLER_0_3_105
*1393 FILLER_0_3_111
*1394 FILLER_0_3_113
*1395 FILLER_0_3_125
*1396 FILLER_0_3_137
*1397 FILLER_0_3_149
*1398 FILLER_0_3_15
*1399 FILLER_0_3_161
*1400 FILLER_0_3_167
*1401 FILLER_0_3_169
*1402 FILLER_0_3_181
*1403 FILLER_0_3_193
*1404 FILLER_0_3_205
*1405 FILLER_0_3_217
*1406 FILLER_0_3_223
*1407 FILLER_0_3_225
*1408 FILLER_0_3_237
*1409 FILLER_0_3_249
*1410 FILLER_0_3_261
*1411 FILLER_0_3_27
*1412 FILLER_0_3_273
*1413 FILLER_0_3_279
*1414 FILLER_0_3_281
*1415 FILLER_0_3_293
*1416 FILLER_0_3_3
*1417 FILLER_0_3_305
*1418 FILLER_0_3_317
*1419 FILLER_0_3_329
*1420 FILLER_0_3_39
*1421 FILLER_0_3_51
*1422 FILLER_0_3_55
*1423 FILLER_0_3_57
*1424 FILLER_0_3_69
*1425 FILLER_0_3_81
*1426 FILLER_0_3_93
*1427 FILLER_0_4_109
*1428 FILLER_0_4_121
*1429 FILLER_0_4_133
*1430 FILLER_0_4_139
*1431 FILLER_0_4_141
*1432 FILLER_0_4_15
*1433 FILLER_0_4_153
*1434 FILLER_0_4_165
*1435 FILLER_0_4_177
*1436 FILLER_0_4_189
*1437 FILLER_0_4_195
*1438 FILLER_0_4_197
*1439 FILLER_0_4_209
*1440 FILLER_0_4_221
*1441 FILLER_0_4_233
*1442 FILLER_0_4_245
*1443 FILLER_0_4_251
*1444 FILLER_0_4_253
*1445 FILLER_0_4_265
*1446 FILLER_0_4_27
*1447 FILLER_0_4_277
*1448 FILLER_0_4_289
*1449 FILLER_0_4_29
*1450 FILLER_0_4_3
*1451 FILLER_0_4_301
*1452 FILLER_0_4_307
*1453 FILLER_0_4_309
*1454 FILLER_0_4_321
*1455 FILLER_0_4_333
*1456 FILLER_0_4_41
*1457 FILLER_0_4_53
*1458 FILLER_0_4_65
*1459 FILLER_0_4_77
*1460 FILLER_0_4_83
*1461 FILLER_0_4_85
*1462 FILLER_0_4_97
*1463 FILLER_0_5_105
*1464 FILLER_0_5_111
*1465 FILLER_0_5_113
*1466 FILLER_0_5_125
*1467 FILLER_0_5_137
*1468 FILLER_0_5_149
*1469 FILLER_0_5_15
*1470 FILLER_0_5_161