*SPEF "ieee 1481-1999"
*DESIGN "tt_um_davidparent_hdl"
*DATE "19:17:53 Saturday June 01, 2024"
*VENDOR "The OpenROAD Project"
*PROGRAM "OpenROAD"
*VERSION "da0053d7b0014ab9c87ea148875ff6c2a0f9b658"
*DESIGN_FLOW "NAME_SCOPE LOCAL" "PIN_CAP NONE"
*DIVIDER /
*DELIMITER :
*BUS_DELIMITER []
*T_UNIT 1 NS
*C_UNIT 1 PF
*R_UNIT 1 OHM
*L_UNIT 1 HENRY

*NAME_MAP
*3 clk
*4 ena
*5 rst_n
*6 ui_in[0]
*7 ui_in[1]
*8 ui_in[2]
*9 ui_in[3]
*10 ui_in[4]
*11 ui_in[5]
*12 ui_in[6]
*13 ui_in[7]
*14 uio_in[0]
*15 uio_in[1]
*16 uio_in[2]
*17 uio_in[3]
*18 uio_in[4]
*19 uio_in[5]
*20 uio_in[6]
*21 uio_in[7]
*22 net16
*23 net17
*24 net18
*25 net19
*26 net20
*27 net21
*28 net22
*29 net23
*30 net24
*31 net25
*32 net26
*33 net27
*34 net28
*35 net29
*36 net30
*37 net31
*38 uo_out[0]
*39 uo_out[1]
*40 uo_out[2]
*41 uo_out[3]
*42 uo_out[4]
*43 uo_out[5]
*44 uo_out[6]
*45 uo_out[7]
*46 InputA\[0\]
*47 InputA\[1\]
*48 InputA\[2\]
*49 InputA\[3\]
*50 InputA\[4\]
*51 InputA\[5\]
*52 InputA\[6\]
*53 InputA\[7\]
*54 InputA\[8\]
*55 InputB\[0\]
*56 InputB\[1\]
*57 InputB\[2\]
*58 InputB\[3\]
*59 InputB\[4\]
*60 InputB\[5\]
*61 InputB\[6\]
*62 InputB\[7\]
*63 _000_
*64 _001_
*65 _002_
*66 _003_
*67 _004_
*68 _005_
*69 _006_
*70 _007_
*71 _008_
*72 _009_
*73 _010_
*74 _011_
*75 _012_
*76 _013_
*77 _014_
*78 _015_
*79 _016_
*80 _017_
*81 _018_
*82 _019_
*83 _020_
*84 _021_
*85 _022_
*86 _023_
*87 _024_
*88 _025_
*89 _026_
*90 _027_
*91 _028_
*92 _029_
*93 _030_
*94 _031_
*95 _032_
*96 _033_
*97 _034_
*98 _035_
*99 _036_
*100 _037_
*101 _038_
*102 _039_
*103 _040_
*104 _041_
*105 _042_
*106 _043_
*107 _044_
*108 _045_
*109 _046_
*110 _047_
*111 _048_
*112 _049_
*113 _050_
*114 _051_
*115 _052_
*116 _053_
*117 _054_
*118 _055_
*119 _056_
*120 _057_
*121 _058_
*122 _059_
*123 _060_
*124 _061_
*125 _062_
*126 _063_
*127 _064_
*128 _065_
*129 _066_
*130 _067_
*131 _068_
*132 _069_
*133 _070_
*134 _071_
*135 _072_
*136 _073_
*137 _074_
*138 _075_
*139 _076_
*140 _077_
*141 _078_
*142 _079_
*143 _080_
*144 _081_
*145 _082_
*146 _083_
*147 _084_
*148 _085_
*149 _086_
*150 _087_
*151 _088_
*152 _089_
*153 _090_
*154 _091_
*155 _092_
*156 _093_
*157 _094_
*158 _095_
*159 _096_
*160 _097_
*161 _098_
*162 _099_
*163 _100_
*164 _101_
*165 _102_
*166 _103_
*167 _104_
*168 _105_
*169 _106_
*170 _107_
*171 _108_
*172 _109_
*173 _110_
*174 _111_
*175 _112_
*176 _113_
*177 _114_
*178 _115_
*179 _116_
*180 _117_
*181 _118_
*182 _119_
*183 _120_
*184 _121_
*185 _122_
*186 _123_
*187 _124_
*188 _125_
*189 _126_
*190 _127_
*191 _128_
*192 _129_
*193 _130_
*194 _131_
*195 _132_
*196 _133_
*197 _134_
*198 _135_
*199 _136_
*200 _137_
*201 _138_
*202 _139_
*203 _140_
*204 _141_
*205 _142_
*206 _143_
*207 _144_
*208 _145_
*209 _146_
*210 _147_
*211 _148_
*212 _149_
*213 _150_
*214 _151_
*215 _152_
*216 _153_
*217 _154_
*218 _155_
*219 _156_
*220 _157_
*221 _158_
*222 _159_
*223 _160_
*224 _161_
*225 _162_
*226 _163_
*227 _164_
*228 _165_
*229 _166_
*230 _167_
*231 _168_
*232 _169_
*233 _170_
*234 _171_
*235 _172_
*236 _173_
*237 _174_
*238 _175_
*239 _176_
*240 _177_
*241 _178_
*242 _179_
*243 _180_
*244 _181_
*245 _182_
*246 _183_
*247 _184_
*248 _185_
*249 _186_
*250 _187_
*251 _188_
*252 _189_
*253 _190_
*254 _191_
*255 _192_
*256 _193_
*257 _194_
*258 _195_
*259 _196_
*260 _197_
*261 _198_
*262 _199_
*263 _200_
*264 _201_
*265 _202_
*266 _203_
*267 _204_
*268 _205_
*269 _206_
*270 _207_
*271 _208_
*272 _209_
*273 _210_
*274 _211_
*275 _212_
*276 _213_
*277 _214_
*278 _215_
*279 _216_
*280 _217_
*281 _218_
*282 _219_
*283 _220_
*284 _221_
*285 _222_
*286 _223_
*287 _224_
*288 _225_
*289 _226_
*290 _227_
*291 _228_
*292 _229_
*293 _230_
*294 _231_
*295 _232_
*296 _233_
*297 _234_
*298 _235_
*299 _236_
*300 _237_
*301 _238_
*302 _239_
*303 _240_
*304 _241_
*305 _242_
*306 _243_
*307 _244_
*308 _245_
*309 _246_
*310 _247_
*311 _248_
*312 _249_
*313 _250_
*314 _251_
*315 _252_
*316 _253_
*317 _254_
*318 _255_
*319 _256_
*320 _257_
*321 _258_
*322 _259_
*323 _260_
*324 _261_
*325 _262_
*326 _263_
*327 _264_
*328 _265_
*329 _266_
*330 _267_
*331 _268_
*332 _269_
*333 _270_
*334 _271_
*335 _272_
*336 _273_
*337 _274_
*338 _275_
*339 _276_
*340 _277_
*341 _278_
*342 _279_
*343 _280_
*344 _281_
*345 _282_
*346 _283_
*347 _284_
*348 clknet_0_clk
*349 clknet_1_0__leaf_clk
*350 clknet_1_1__leaf_clk
*351 clknet_leaf_0_clk
*352 clknet_leaf_10_clk
*353 clknet_leaf_1_clk
*354 clknet_leaf_2_clk
*355 clknet_leaf_3_clk
*356 clknet_leaf_4_clk
*357 clknet_leaf_5_clk
*358 clknet_leaf_6_clk
*359 clknet_leaf_7_clk
*360 clknet_leaf_8_clk
*361 clknet_leaf_9_clk
*362 lfsr\[0\]
*363 lfsr\[10\]
*364 lfsr\[11\]
*365 lfsr\[12\]
*366 lfsr\[13\]
*367 lfsr\[14\]
*368 lfsr\[15\]
*369 lfsr\[16\]
*370 lfsr\[17\]
*371 lfsr\[18\]
*372 lfsr\[19\]
*373 lfsr\[1\]
*374 lfsr\[20\]
*375 lfsr\[21\]
*376 lfsr\[22\]
*377 lfsr\[23\]
*378 lfsr\[24\]
*379 lfsr\[25\]
*380 lfsr\[26\]
*381 lfsr\[27\]
*382 lfsr\[28\]
*383 lfsr\[29\]
*384 lfsr\[2\]
*385 lfsr\[30\]
*386 lfsr\[3\]
*387 lfsr\[4\]
*388 lfsr\[5\]
*389 lfsr\[6\]
*390 lfsr\[7\]
*391 lfsr\[8\]
*392 lfsr\[9\]
*393 lfsr_big\[0\]
*394 lfsr_big\[100\]
*395 lfsr_big\[101\]
*396 lfsr_big\[102\]
*397 lfsr_big\[103\]
*398 lfsr_big\[104\]
*399 lfsr_big\[105\]
*400 lfsr_big\[106\]
*401 lfsr_big\[107\]
*402 lfsr_big\[108\]
*403 lfsr_big\[109\]
*404 lfsr_big\[10\]
*405 lfsr_big\[110\]
*406 lfsr_big\[111\]
*407 lfsr_big\[112\]
*408 lfsr_big\[113\]
*409 lfsr_big\[114\]
*410 lfsr_big\[115\]
*411 lfsr_big\[116\]
*412 lfsr_big\[117\]
*413 lfsr_big\[118\]
*414 lfsr_big\[119\]
*415 lfsr_big\[11\]
*416 lfsr_big\[120\]
*417 lfsr_big\[121\]
*418 lfsr_big\[122\]
*419 lfsr_big\[123\]
*420 lfsr_big\[124\]
*421 lfsr_big\[125\]
*422 lfsr_big\[126\]
*423 lfsr_big\[127\]
*424 lfsr_big\[128\]
*425 lfsr_big\[129\]
*426 lfsr_big\[12\]
*427 lfsr_big\[130\]
*428 lfsr_big\[13\]
*429 lfsr_big\[14\]
*430 lfsr_big\[15\]
*431 lfsr_big\[16\]
*432 lfsr_big\[17\]
*433 lfsr_big\[18\]
*434 lfsr_big\[19\]
*435 lfsr_big\[1\]
*436 lfsr_big\[20\]
*437 lfsr_big\[21\]
*438 lfsr_big\[22\]
*439 lfsr_big\[23\]
*440 lfsr_big\[24\]
*441 lfsr_big\[25\]
*442 lfsr_big\[26\]
*443 lfsr_big\[27\]
*444 lfsr_big\[28\]
*445 lfsr_big\[29\]
*446 lfsr_big\[2\]
*447 lfsr_big\[30\]
*448 lfsr_big\[31\]
*449 lfsr_big\[32\]
*450 lfsr_big\[33\]
*451 lfsr_big\[34\]
*452 lfsr_big\[35\]
*453 lfsr_big\[36\]
*454 lfsr_big\[37\]
*455 lfsr_big\[38\]
*456 lfsr_big\[39\]
*457 lfsr_big\[3\]
*458 lfsr_big\[40\]
*459 lfsr_big\[41\]
*460 lfsr_big\[42\]
*461 lfsr_big\[43\]
*462 lfsr_big\[44\]
*463 lfsr_big\[45\]
*464 lfsr_big\[46\]
*465 lfsr_big\[47\]
*466 lfsr_big\[48\]
*467 lfsr_big\[49\]
*468 lfsr_big\[4\]
*469 lfsr_big\[50\]
*470 lfsr_big\[51\]
*471 lfsr_big\[52\]
*472 lfsr_big\[53\]
*473 lfsr_big\[54\]
*474 lfsr_big\[55\]
*475 lfsr_big\[56\]
*476 lfsr_big\[57\]
*477 lfsr_big\[58\]
*478 lfsr_big\[59\]
*479 lfsr_big\[5\]
*480 lfsr_big\[60\]
*481 lfsr_big\[61\]
*482 lfsr_big\[62\]
*483 lfsr_big\[63\]
*484 lfsr_big\[64\]
*485 lfsr_big\[65\]
*486 lfsr_big\[66\]
*487 lfsr_big\[67\]
*488 lfsr_big\[68\]
*489 lfsr_big\[69\]
*490 lfsr_big\[6\]
*491 lfsr_big\[70\]
*492 lfsr_big\[71\]
*493 lfsr_big\[72\]
*494 lfsr_big\[73\]
*495 lfsr_big\[74\]
*496 lfsr_big\[75\]
*497 lfsr_big\[76\]
*498 lfsr_big\[77\]
*499 lfsr_big\[78\]
*500 lfsr_big\[79\]
*501 lfsr_big\[7\]
*502 lfsr_big\[80\]
*503 lfsr_big\[81\]
*504 lfsr_big\[82\]
*505 lfsr_big\[83\]
*506 lfsr_big\[84\]
*507 lfsr_big\[85\]
*508 lfsr_big\[86\]
*509 lfsr_big\[87\]
*510 lfsr_big\[88\]
*511 lfsr_big\[89\]
*512 lfsr_big\[8\]
*513 lfsr_big\[90\]
*514 lfsr_big\[91\]
*515 lfsr_big\[92\]
*516 lfsr_big\[93\]
*517 lfsr_big\[94\]
*518 lfsr_big\[95\]
*519 lfsr_big\[96\]
*520 lfsr_big\[97\]
*521 lfsr_big\[98\]
*522 lfsr_big\[99\]
*523 lfsr_big\[9\]
*524 lfsr_test\[0\]
*525 lfsr_test\[10\]
*526 lfsr_test\[11\]
*527 lfsr_test\[12\]
*528 lfsr_test\[13\]
*529 lfsr_test\[14\]
*530 lfsr_test\[15\]
*531 lfsr_test\[16\]
*532 lfsr_test\[17\]
*533 lfsr_test\[18\]
*534 lfsr_test\[19\]
*535 lfsr_test\[1\]
*536 lfsr_test\[20\]
*537 lfsr_test\[21\]
*538 lfsr_test\[22\]
*539 lfsr_test\[23\]
*540 lfsr_test\[24\]
*541 lfsr_test\[25\]
*542 lfsr_test\[26\]
*543 lfsr_test\[27\]
*544 lfsr_test\[28\]
*545 lfsr_test\[29\]
*546 lfsr_test\[2\]
*547 lfsr_test\[30\]
*548 lfsr_test\[3\]
*549 lfsr_test\[4\]
*550 lfsr_test\[5\]
*551 lfsr_test\[6\]
*552 lfsr_test\[7\]
*553 lfsr_test\[8\]
*554 lfsr_test\[9\]
*555 net1
*556 net10
*557 net100
*558 net101
*559 net102
*560 net103
*561 net104
*562 net105
*563 net106
*564 net107
*565 net108
*566 net109
*567 net11
*568 net110
*569 net111
*570 net112
*571 net113
*572 net114
*573 net115
*574 net116
*575 net117
*576 net118
*577 net119
*578 net12
*579 net120
*580 net121
*581 net122
*582 net123
*583 net124
*584 net125
*585 net126
*586 net127
*587 net128
*588 net129
*589 net13
*590 net130
*591 net131
*592 net132
*593 net133
*594 net134
*595 net135
*596 net136
*597 net137
*598 net138
*599 net139
*600 net14
*601 net140
*602 net141
*603 net142
*604 net143
*605 net144
*606 net145
*607 net146
*608 net147
*609 net148
*610 net149
*611 net15
*612 net150
*613 net151
*614 net152
*615 net153
*616 net154
*617 net155
*618 net156
*619 net157
*620 net158
*621 net159
*622 net160
*623 net161
*624 net162
*625 net163
*626 net164
*627 net165
*628 net166
*629 net167
*630 net168
*631 net169
*632 net170
*633 net171
*634 net172
*635 net173
*636 net174
*637 net175
*638 net176
*639 net177
*640 net178
*641 net179
*642 net180
*643 net181
*644 net182
*645 net183
*646 net184
*647 net185
*648 net186
*649 net187
*650 net188
*651 net189
*652 net190
*653 net191
*654 net192
*655 net193
*656 net194
*657 net195
*658 net196
*659 net197
*660 net198
*661 net199
*662 net2
*663 net200
*664 net201
*665 net202
*666 net203
*667 net204
*668 net205
*669 net206
*670 net207
*671 net208
*672 net209
*673 net210
*674 net211
*675 net212
*676 net213
*677 net214
*678 net215
*679 net216
*680 net217
*681 net218
*682 net219
*683 net220
*684 net221
*685 net222
*686 net223
*687 net224
*688 net225
*689 net226
*690 net227
*691 net228
*692 net3
*693 net32
*694 net33
*695 net34
*696 net35
*697 net36
*698 net37
*699 net38
*700 net39
*701 net4
*702 net40
*703 net41
*704 net42
*705 net43
*706 net44
*707 net45
*708 net46
*709 net47
*710 net48
*711 net49
*712 net5
*713 net50
*714 net51
*715 net52
*716 net53
*717 net54
*718 net55
*719 net56
*720 net57
*721 net58
*722 net59
*723 net6
*724 net60
*725 net61
*726 net62
*727 net63
*728 net64
*729 net65
*730 net66
*731 net67
*732 net68
*733 net69
*734 net7
*735 net70
*736 net71
*737 net72
*738 net73
*739 net74
*740 net75
*741 net76
*742 net77
*743 net78
*744 net79
*745 net8
*746 net80
*747 net81
*748 net82
*749 net83
*750 net84
*751 net85
*752 net86
*753 net87
*754 net88
*755 net89
*756 net9
*757 net90
*758 net91
*759 net92
*760 net93
*761 net94
*762 net95
*763 net96
*764 net97
*765 net98
*766 net99
*767 out\[0\]
*768 out\[1\]
*769 out\[2\]
*770 FILLER_0_0_109
*771 FILLER_0_0_113
*772 FILLER_0_0_125
*773 FILLER_0_0_137
*774 FILLER_0_0_141
*775 FILLER_0_0_15
*776 FILLER_0_0_153
*777 FILLER_0_0_165
*778 FILLER_0_0_169
*779 FILLER_0_0_181
*780 FILLER_0_0_193
*781 FILLER_0_0_197
*782 FILLER_0_0_209
*783 FILLER_0_0_221
*784 FILLER_0_0_225
*785 FILLER_0_0_237
*786 FILLER_0_0_249
*787 FILLER_0_0_253
*788 FILLER_0_0_265
*789 FILLER_0_0_27
*790 FILLER_0_0_277
*791 FILLER_0_0_281
*792 FILLER_0_0_29
*793 FILLER_0_0_293
*794 FILLER_0_0_3
*795 FILLER_0_0_305
*796 FILLER_0_0_309
*797 FILLER_0_0_321
*798 FILLER_0_0_333
*799 FILLER_0_0_41
*800 FILLER_0_0_53
*801 FILLER_0_0_57
*802 FILLER_0_0_69
*803 FILLER_0_0_81
*804 FILLER_0_0_85
*805 FILLER_0_0_97
*806 FILLER_0_10_138
*807 FILLER_0_10_141
*808 FILLER_0_10_15
*809 FILLER_0_10_182
*810 FILLER_0_10_200
*811 FILLER_0_10_250
*812 FILLER_0_10_256
*813 FILLER_0_10_27
*814 FILLER_0_10_3
*815 FILLER_0_10_333
*816 FILLER_0_10_58
*817 FILLER_0_10_83
*818 FILLER_0_10_88
*819 FILLER_0_10_92
*820 FILLER_0_11_102
*821 FILLER_0_11_110
*822 FILLER_0_11_135
*823 FILLER_0_11_147
*824 FILLER_0_11_161
*825 FILLER_0_11_167
*826 FILLER_0_11_172
*827 FILLER_0_11_184
*828 FILLER_0_11_196
*829 FILLER_0_11_202
*830 FILLER_0_11_211
*831 FILLER_0_11_223
*832 FILLER_0_11_225
*833 FILLER_0_11_233
*834 FILLER_0_11_278
*835 FILLER_0_11_3
*836 FILLER_0_11_334
*837 FILLER_0_11_44
*838 FILLER_0_11_57
*839 FILLER_0_11_69
*840 FILLER_0_11_73
*841 FILLER_0_11_88
*842 FILLER_0_12_109
*843 FILLER_0_12_121
*844 FILLER_0_12_133
*845 FILLER_0_12_139
*846 FILLER_0_12_141
*847 FILLER_0_12_15
*848 FILLER_0_12_153
*849 FILLER_0_12_168
*850 FILLER_0_12_172
*851 FILLER_0_12_176
*852 FILLER_0_12_188
*853 FILLER_0_12_19
*854 FILLER_0_12_197
*855 FILLER_0_12_215
*856 FILLER_0_12_227
*857 FILLER_0_12_243
*858 FILLER_0_12_251
*859 FILLER_0_12_29
*860 FILLER_0_12_3
*861 FILLER_0_12_307
*862 FILLER_0_12_309
*863 FILLER_0_12_64
*864 FILLER_0_12_72
*865 FILLER_0_12_80
*866 FILLER_0_12_85
*867 FILLER_0_12_97
*868 FILLER_0_13_103
*869 FILLER_0_13_111
*870 FILLER_0_13_142
*871 FILLER_0_13_146
*872 FILLER_0_13_15
*873 FILLER_0_13_198
*874 FILLER_0_13_223
*875 FILLER_0_13_225
*876 FILLER_0_13_237
*877 FILLER_0_13_249
*878 FILLER_0_13_257
*879 FILLER_0_13_263
*880 FILLER_0_13_27
*881 FILLER_0_13_276
*882 FILLER_0_13_292
*883 FILLER_0_13_3
*884 FILLER_0_13_300
*885 FILLER_0_13_334
*886 FILLER_0_13_68
*887 FILLER_0_13_94
*888 FILLER_0_14_106
*889 FILLER_0_14_139
*890 FILLER_0_14_147
*891 FILLER_0_14_15
*892 FILLER_0_14_247
*893 FILLER_0_14_251
*894 FILLER_0_14_27
*895 FILLER_0_14_29
*896 FILLER_0_14_291
*897 FILLER_0_14_297
*898 FILLER_0_14_3
*899 FILLER_0_14_306
*900 FILLER_0_14_309
*901 FILLER_0_14_333
*902 FILLER_0_15_142
*903 FILLER_0_15_15
*904 FILLER_0_15_166
*905 FILLER_0_15_169
*906 FILLER_0_15_200
*907 FILLER_0_15_222
*908 FILLER_0_15_225
*909 FILLER_0_15_27
*910 FILLER_0_15_276
*911 FILLER_0_15_3
*912 FILLER_0_15_305
*913 FILLER_0_15_317
*914 FILLER_0_15_325
*915 FILLER_0_15_49
*916 FILLER_0_15_57
*917 FILLER_0_15_68
*918 FILLER_0_15_90
*919 FILLER_0_16_144
*920 FILLER_0_16_15
*921 FILLER_0_16_191
*922 FILLER_0_16_195
*923 FILLER_0_16_205
*924 FILLER_0_16_220
*925 FILLER_0_16_224
*926 FILLER_0_16_228
*927 FILLER_0_16_27
*928 FILLER_0_16_295
*929 FILLER_0_16_3
*930 FILLER_0_16_307
*931 FILLER_0_16_312
*932 FILLER_0_16_324
*933 FILLER_0_16_332
*934 FILLER_0_16_58
*935 FILLER_0_16_70
*936 FILLER_0_16_78
*937 FILLER_0_16_83
*938 FILLER_0_16_93
*939 FILLER_0_17_105
*940 FILLER_0_17_148
*941 FILLER_0_17_15
*942 FILLER_0_17_183
*943 FILLER_0_17_195
*944 FILLER_0_17_207
*945 FILLER_0_17_223
*946 FILLER_0_17_233
*947 FILLER_0_17_243
*948 FILLER_0_17_27
*949 FILLER_0_17_278
*950 FILLER_0_17_3
*951 FILLER_0_17_310
*952 FILLER_0_17_322
*953 FILLER_0_17_334
*954 FILLER_0_17_39
*955 FILLER_0_17_49
*956 FILLER_0_17_55
*957 FILLER_0_17_60
*958 FILLER_0_17_76
*959 FILLER_0_17_87
*960 FILLER_0_17_99
*961 FILLER_0_18_106
*962 FILLER_0_18_118
*963 FILLER_0_18_141
*964 FILLER_0_18_15
*965 FILLER_0_18_187
*966 FILLER_0_18_195
*967 FILLER_0_18_197
*968 FILLER_0_18_248
*969 FILLER_0_18_262
*970 FILLER_0_18_27
*971 FILLER_0_18_271
*972 FILLER_0_18_281
*973 FILLER_0_18_29
*974 FILLER_0_18_3
*975 FILLER_0_18_304
*976 FILLER_0_18_317
*977 FILLER_0_18_329
*978 FILLER_0_18_40
*979 FILLER_0_19_137
*980 FILLER_0_19_148
*981 FILLER_0_19_15
*982 FILLER_0_19_160
*983 FILLER_0_19_169
*984 FILLER_0_19_257
*985 FILLER_0_19_261
*986 FILLER_0_19_27
*987 FILLER_0_19_279
*988 FILLER_0_19_281
*989 FILLER_0_19_293
*990 FILLER_0_19_3
*991 FILLER_0_19_305
*992 FILLER_0_19_317
*993 FILLER_0_19_326
*994 FILLER_0_19_34
*995 FILLER_0_19_57
*996 FILLER_0_1_105
*997 FILLER_0_1_111
*998 FILLER_0_1_113
*999 FILLER_0_1_125
*1000 FILLER_0_1_137
*1001 FILLER_0_1_149
*1002 FILLER_0_1_15
*1003 FILLER_0_1_161
*1004 FILLER_0_1_167
*1005 FILLER_0_1_169
*1006 FILLER_0_1_181
*1007 FILLER_0_1_193
*1008 FILLER_0_1_205
*1009 FILLER_0_1_217
*1010 FILLER_0_1_223
*1011 FILLER_0_1_225
*1012 FILLER_0_1_237
*1013 FILLER_0_1_249
*1014 FILLER_0_1_261
*1015 FILLER_0_1_27
*1016 FILLER_0_1_273
*1017 FILLER_0_1_279
*1018 FILLER_0_1_281
*1019 FILLER_0_1_293
*1020 FILLER_0_1_3
*1021 FILLER_0_1_305
*1022 FILLER_0_1_317
*1023 FILLER_0_1_329
*1024 FILLER_0_1_39
*1025 FILLER_0_1_51
*1026 FILLER_0_1_55
*1027 FILLER_0_1_57
*1028 FILLER_0_1_69
*1029 FILLER_0_1_81
*1030 FILLER_0_1_93
*1031 FILLER_0_20_126
*1032 FILLER_0_20_135
*1033 FILLER_0_20_139
*1034 FILLER_0_20_141
*1035 FILLER_0_20_15
*1036 FILLER_0_20_153
*1037 FILLER_0_20_177
*1038 FILLER_0_20_189
*1039 FILLER_0_20_205
*1040 FILLER_0_20_23
*1041 FILLER_0_20_248
*1042 FILLER_0_20_253
*1043 FILLER_0_20_257
*1044 FILLER_0_20_3
*1045 FILLER_0_20_312
*1046 FILLER_0_20_334
*1047 FILLER_0_20_82
*1048 FILLER_0_20_85
*1049 FILLER_0_21_116
*1050 FILLER_0_21_130
*1051 FILLER_0_21_15
*1052 FILLER_0_21_152
*1053 FILLER_0_21_164
*1054 FILLER_0_21_19
*1055 FILLER_0_21_206
*1056 FILLER_0_21_214
*1057 FILLER_0_21_222
*1058 FILLER_0_21_225
*1059 FILLER_0_21_247
*1060 FILLER_0_21_3
*1061 FILLER_0_21_334
*1062 FILLER_0_21_41
*1063 FILLER_0_21_49
*1064 FILLER_0_21_78
*1065 FILLER_0_21_86
*1066 FILLER_0_21_90
*1067 FILLER_0_22_117
*1068 FILLER_0_22_15
*1069 FILLER_0_22_155
*1070 FILLER_0_22_163
*1071 FILLER_0_22_189
*1072 FILLER_0_22_194
*1073 FILLER_0_22_197
*1074 FILLER_0_22_244
*1075 FILLER_0_22_27
*1076 FILLER_0_22_3
*1077 FILLER_0_22_306
*1078 FILLER_0_22_333
*1079 FILLER_0_22_37
*1080 FILLER_0_22_45
*1081 FILLER_0_22_68
*1082 FILLER_0_22_78
*1083 FILLER_0_23_103
*1084 FILLER_0_23_113
*1085 FILLER_0_23_147
*1086 FILLER_0_23_15
*1087 FILLER_0_23_169
*1088 FILLER_0_23_179
*1089 FILLER_0_23_222
*1090 FILLER_0_23_278
*1091 FILLER_0_23_290
*1092 FILLER_0_23_3
*1093 FILLER_0_23_334
*1094 FILLER_0_23_37
*1095 FILLER_0_23_47
*1096 FILLER_0_24_138
*1097 FILLER_0_24_149
*1098 FILLER_0_24_15
*1099 FILLER_0_24_153
*1100 FILLER_0_24_181
*1101 FILLER_0_24_185
*1102 FILLER_0_24_194
*1103 FILLER_0_24_197
*1104 FILLER_0_24_232
*1105 FILLER_0_24_244
*1106 FILLER_0_24_251
*1107 FILLER_0_24_27
*1108 FILLER_0_24_285
*1109 FILLER_0_24_29
*1110 FILLER_0_24_297
*1111 FILLER_0_24_3
*1112 FILLER_0_24_301
*1113 FILLER_0_24_330
*1114 FILLER_0_24_334
*1115 FILLER_0_24_35
*1116 FILLER_0_24_44
*1117 FILLER_0_24_68
*1118 FILLER_0_24_80
*1119 FILLER_0_25_110
*1120 FILLER_0_25_15
*1121 FILLER_0_25_163
*1122 FILLER_0_25_167
*1123 FILLER_0_25_177
*1124 FILLER_0_25_189
*1125 FILLER_0_25_201
*1126 FILLER_0_25_209
*1127 FILLER_0_25_215
*1128 FILLER_0_25_246
*1129 FILLER_0_25_258
*1130 FILLER_0_25_27
*1131 FILLER_0_25_292
*1132 FILLER_0_25_3
*1133 FILLER_0_25_333
*1134 FILLER_0_25_63
*1135 FILLER_0_25_72
*1136 FILLER_0_26_15
*1137 FILLER_0_26_171
*1138 FILLER_0_26_183
*1139 FILLER_0_26_192
*1140 FILLER_0_26_197
*1141 FILLER_0_26_201
*1142 FILLER_0_26_237
*1143 FILLER_0_26_245
*1144 FILLER_0_26_259
*1145 FILLER_0_26_27
*1146 FILLER_0_26_292
*1147 FILLER_0_26_3
*1148 FILLER_0_26_305
*1149 FILLER_0_26_309
*1150 FILLER_0_26_323
*1151 FILLER_0_26_330
*1152 FILLER_0_26_334
*1153 FILLER_0_26_43
*1154 FILLER_0_26_66
*1155 FILLER_0_26_78
*1156 FILLER_0_26_85
*1157 FILLER_0_26_91
*1158 FILLER_0_27_102
*1159 FILLER_0_27_111
*1160 FILLER_0_27_137
*1161 FILLER_0_27_15
*1162 FILLER_0_27_167
*1163 FILLER_0_27_175
*1164 FILLER_0_27_221
*1165 FILLER_0_27_233
*1166 FILLER_0_27_237
*1167 FILLER_0_27_27
*1168 FILLER_0_27_281
*1169 FILLER_0_27_3
*1170 FILLER_0_27_51
*1171 FILLER_0_27_55
*1172 FILLER_0_27_65
*1173 FILLER_0_27_94
*1174 FILLER_0_28_106
*1175 FILLER_0_28_113
*1176 FILLER_0_28_139
*1177 FILLER_0_28_144
*1178 FILLER_0_28_15
*1179 FILLER_0_28_158
*1180 FILLER_0_28_165
*1181 FILLER_0_28_205
*1182 FILLER_0_28_232
*1183 FILLER_0_28_238
*1184 FILLER_0_28_245
*1185 FILLER_0_28_27
*1186 FILLER_0_28_290
*1187 FILLER_0_28_296
*1188 FILLER_0_28_3
*1189 FILLER_0_28_333
*1190 FILLER_0_28_61
*1191 FILLER_0_28_96
*1192 FILLER_0_29_113
*1193 FILLER_0_29_118
*1194 FILLER_0_29_124
*1195 FILLER_0_29_15
*1196 FILLER_0_29_152
*1197 FILLER_0_29_164
*1198 FILLER_0_29_201
*1199 FILLER_0_29_207
*1200 FILLER_0_29_216
*1201 FILLER_0_29_223
*1202 FILLER_0_29_225
*1203 FILLER_0_29_261
*1204 FILLER_0_29_273
*1205 FILLER_0_29_281
*1206 FILLER_0_29_293
*1207 FILLER_0_29_3
*1208 FILLER_0_29_333
*1209 FILLER_0_29_54
*1210 FILLER_0_29_60
*1211 FILLER_0_2_109
*1212 FILLER_0_2_121
*1213 FILLER_0_2_133
*1214 FILLER_0_2_139
*1215 FILLER_0_2_141
*1216 FILLER_0_2_15
*1217 FILLER_0_2_153
*1218 FILLER_0_2_165
*1219 FILLER_0_2_177
*1220 FILLER_0_2_189
*1221 FILLER_0_2_195
*1222 FILLER_0_2_197
*1223 FILLER_0_2_209
*1224 FILLER_0_2_221
*1225 FILLER_0_2_233
*1226 FILLER_0_2_245
*1227 FILLER_0_2_251
*1228 FILLER_0_2_253
*1229 FILLER_0_2_265
*1230 FILLER_0_2_27
*1231 FILLER_0_2_277
*1232 FILLER_0_2_289
*1233 FILLER_0_2_29
*1234 FILLER_0_2_3
*1235 FILLER_0_2_301
*1236 FILLER_0_2_307
*1237 FILLER_0_2_309
*1238 FILLER_0_2_321
*1239 FILLER_0_2_333
*1240 FILLER_0_2_41
*1241 FILLER_0_2_53
*1242 FILLER_0_2_65
*1243 FILLER_0_2_77
*1244 FILLER_0_2_83
*1245 FILLER_0_2_85
*1246 FILLER_0_2_97
*1247 FILLER_0_30_115
*1248 FILLER_0_30_138
*1249 FILLER_0_30_149
*1250 FILLER_0_30_15
*1251 FILLER_0_30_190
*1252 FILLER_0_30_197
*1253 FILLER_0_30_231
*1254 FILLER_0_30_243
*1255 FILLER_0_30_251
*1256 FILLER_0_30_253
*1257 FILLER_0_30_27
*1258 FILLER_0_30_283
*1259 FILLER_0_30_295
*1260 FILLER_0_30_3
*1261 FILLER_0_30_303
*1262 FILLER_0_30_309
*1263 FILLER_0_30_331
*1264 FILLER_0_30_61
*1265 FILLER_0_30_82
*1266 FILLER_0_30_93
*1267 FILLER_0_31_102
*1268 FILLER_0_31_113
*1269 FILLER_0_31_15
*1270 FILLER_0_31_152
*1271 FILLER_0_31_167
*1272 FILLER_0_31_172
*1273 FILLER_0_31_184
*1274 FILLER_0_31_190
*1275 FILLER_0_31_223
*1276 FILLER_0_31_243
*1277 FILLER_0_31_259
*1278 FILLER_0_31_27
*1279 FILLER_0_31_271
*1280 FILLER_0_31_279
*1281 FILLER_0_31_289
*1282 FILLER_0_31_297
*1283 FILLER_0_31_3
*1284 FILLER_0_31_326
*1285 FILLER_0_31_52
*1286 FILLER_0_31_57
*1287 FILLER_0_31_65
*1288 FILLER_0_31_89
*1289 FILLER_0_31_94
*1290 FILLER_0_32_104
*1291 FILLER_0_32_15
*1292 FILLER_0_32_165
*1293 FILLER_0_32_171
*1294 FILLER_0_32_193
*1295 FILLER_0_32_197
*1296 FILLER_0_32_227
*1297 FILLER_0_32_251
*1298 FILLER_0_32_259
*1299 FILLER_0_32_27
*1300 FILLER_0_32_286
*1301 FILLER_0_32_290
*1302 FILLER_0_32_3
*1303 FILLER_0_32_305
*1304 FILLER_0_32_309
*1305 FILLER_0_32_331
*1306 FILLER_0_32_50
*1307 FILLER_0_32_54
*1308 FILLER_0_32_96
*1309 FILLER_0_33_102
*1310 FILLER_0_33_110
*1311 FILLER_0_33_113
*1312 FILLER_0_33_125
*1313 FILLER_0_33_133
*1314 FILLER_0_33_144
*1315 FILLER_0_33_15
*1316 FILLER_0_33_191
*1317 FILLER_0_33_203
*1318 FILLER_0_33_215
*1319 FILLER_0_33_223
*1320 FILLER_0_33_259
*1321 FILLER_0_33_263
*1322 FILLER_0_33_269
*1323 FILLER_0_33_27
*1324 FILLER_0_33_277
*1325 FILLER_0_33_281
*1326 FILLER_0_33_288
*1327 FILLER_0_33_3
*1328 FILLER_0_33_300
*1329 FILLER_0_33_334
*1330 FILLER_0_33_39
*1331 FILLER_0_33_47
*1332 FILLER_0_33_57
*1333 FILLER_0_33_90
*1334 FILLER_0_34_108
*1335 FILLER_0_34_114
*1336 FILLER_0_34_138
*1337 FILLER_0_34_144
*1338 FILLER_0_34_15
*1339 FILLER_0_34_166
*1340 FILLER_0_34_178
*1341 FILLER_0_34_185
*1342 FILLER_0_34_193
*1343 FILLER_0_34_197
*1344 FILLER_0_34_203
*1345 FILLER_0_34_222
*1346 FILLER_0_34_234
*1347 FILLER_0_34_241
*1348 FILLER_0_34_250
*1349 FILLER_0_34_260
*1350 FILLER_0_34_27
*1351 FILLER_0_34_29
*1352 FILLER_0_34_291
*1353 FILLER_0_34_3
*1354 FILLER_0_34_303
*1355 FILLER_0_34_324
*1356 FILLER_0_34_333
*1357 FILLER_0_34_41
*1358 FILLER_0_34_53
*1359 FILLER_0_34_77
*1360 FILLER_0_34_82
*1361 FILLER_0_34_85
*1362 FILLER_0_34_96
*1363 FILLER_0_35_103
*1364 FILLER_0_35_111
*1365 FILLER_0_35_134
*1366 FILLER_0_35_143
*1367 FILLER_0_35_15
*1368 FILLER_0_35_172
*1369 FILLER_0_35_184
*1370 FILLER_0_35_196
*1371 FILLER_0_35_222
*1372 FILLER_0_35_225
*1373 FILLER_0_35_248
*1374 FILLER_0_35_260
*1375 FILLER_0_35_264
*1376 FILLER_0_35_27
*1377 FILLER_0_35_292
*1378 FILLER_0_35_3
*1379 FILLER_0_35_331
*1380 FILLER_0_35_39
*1381 FILLER_0_35_51
*1382 FILLER_0_35_55
*1383 FILLER_0_35_81
*1384 FILLER_0_36_106
*1385 FILLER_0_36_15
*1386 FILLER_0_36_154
*1387 FILLER_0_36_179
*1388 FILLER_0_36_187
*1389 FILLER_0_36_217
*1390 FILLER_0_36_242
*1391 FILLER_0_36_247
*1392 FILLER_0_36_251
*1393 FILLER_0_36_256
*1394 FILLER_0_36_260
*1395 FILLER_0_36_27
*1396 FILLER_0_36_29
*1397 FILLER_0_36_3
*1398 FILLER_0_36_307
*1399 FILLER_0_36_41
*1400 FILLER_0_36_53
*1401 FILLER_0_36_67
*1402 FILLER_0_37_110
*1403 FILLER_0_37_113
*1404 FILLER_0_37_146
*1405 FILLER_0_37_15
*1406 FILLER_0_37_182
*1407 FILLER_0_37_222
*1408 FILLER_0_37_225
*1409 FILLER_0_37_232
*1410 FILLER_0_37_27
*1411 FILLER_0_37_3
*1412 FILLER_0_37_325
*1413 FILLER_0_37_333
*1414 FILLER_0_37_39
*1415 FILLER_0_37_51
*1416 FILLER_0_37_55
*1417 FILLER_0_37_57
*1418 FILLER_0_37_69
*1419 FILLER_0_37_99
*1420 FILLER_0_38_10
*1421 FILLER_0_38_102
*1422 FILLER_0_38_106
*1423 FILLER_0_38_110
*1424 FILLER_0_38_113
*1425 FILLER_0_38_121
*1426 FILLER_0_38_136
*1427 FILLER_0_38_14
*1428 FILLER_0_38_141
*1429 FILLER_0_38_156
*1430 FILLER_0_38_162
*1431 FILLER_0_38_167
*1432 FILLER_0_38_173
*1433 FILLER_0_38_178
*1434 FILLER_0_38_18
*1435 FILLER_0_38_190
*1436 FILLER_0_38_22
*1437 FILLER_0_38_223
*1438 FILLER_0_38_231
*1439 FILLER_0_38_238
*1440 FILLER_0_38_242
*1441 FILLER_0_38_246
*1442 FILLER_0_38_253
*1443 FILLER_0_38_262
*1444 FILLER_0_38_266
*1445 FILLER_0_38_270
*1446 FILLER_0_38_274
*1447 FILLER_0_38_278
*1448 FILLER_0_38_281
*1449 FILLER_0_38_286
*1450 FILLER_0_38_290
*1451 FILLER_0_38_294
*1452 FILLER_0_38_298
*1453 FILLER_0_38_302
*1454 FILLER_0_38_312
*1455 FILLER_0_38_318
*1456 FILLER_0_38_32
*1457 FILLER_0_38_330
*1458 FILLER_0_38_334
*1459 FILLER_0_38_38
*1460 FILLER_0_38_42
*1461 FILLER_0_38_46
*1462 FILLER_0_38_50
*1463 FILLER_0_38_54
*1464 FILLER_0_38_57
*1465 FILLER_0_38_6
*1466 FILLER_0_38_62
*1467 FILLER_0_38_66
*1468 FILLER_0_38_70
*1469 FILLER_0_38_74
*1470 FILLER_0_38_78
*1471 FILLER_0_38_88
*1472 FILLER_0_38_94
*1473 FILLER_0_38_98
*1474 FILLER_0_3_105
*1475 FILLER_0_3_111
*1476 FILLER_0_3_113
*1477 FILLER_0_3_125
*1478 FILLER_0_3_137
*1479 FILLER_0_3_149
*1480 FILLER_0_3_15
*1481 FILLER_0_3_161
*1482 FILLER_0_3_167
*1483 FILLER_0_3_169
*1484 FILLER_0_3_181
*1485 FILLER_0_3_193
*1486 FILLER_0_3_205
*1487 FILLER_0_3_217
*1488 FILLER_0_3_223
*1489 FILLER_0_3_225
*1490 FILLER_0_3_237
*1491 FILLER_0_3_249
*1492 FILLER_0_3_261
*1493 FILLER_0_3_27
*1494 FILLER_0_3_273
*1495 FILLER_0_3_279
*1496 FILLER_0_3_281
*1497 FILLER_0_3_293
*1498 FILLER_0_3_3
*1499 FILLER_0_3_305
*1500 FILLER_0_3_317
*1501 FILLER_0_3_329
*1502 FILLER_0_3_39
*1503 FILLER_0_3_51
*1504 FILLER_0_3_55
*1505 FILLER_0_3_57
*1506 FILLER_0_3_69
*1507 FILLER_0_3_81
*1508 FILLER_0_3_93
*1509 FILLER_0_4_109
*1510 FILLER_0_4_121
*1511 FILLER_0_4_133
*1512 FILLER_0_4_139
*1513 FILLER_0_4_141
*1514 FILLER_0_4_15
*1515 FILLER_0_4_153
*1516 FILLER_0_4_165
*1517 FILLER_0_4_177
*1518 FILLER_0_4_189
*1519 FILLER_0_4_195
*1520 FILLER_0_4_197
*1521 FILLER_0_4_209
*1522 FILLER_0_4_221
*1523 FILLER_0_4_233
*1524 FILLER_0_4_245
*1525 FILLER_0_4_251
*1526 FILLER_0_4_253
*1527 FILLER_0_4_265
*1528 FILLER_0_4_27
*1529 FILLER_0_4_277
*1530 FILLER_0_4_289
*1531 FILLER_0_4_29
*1532 FILLER_0_4_3
*1533 FILLER_0_4_301
*1534 FILLER_0_4_307
*1535 FILLER_0_4_309
*1536 FILLER_0_4_321
*1537 FILLER_0_4_333
*1538 FILLER_0_4_41
*1539 FILLER_0_4_53
*1540 FILLER_0_4_65
*1541 FILLER_0_4_77
*1542 FILLER_0_4_83
*1543 FILLER_0_4_85
*1544 FILLER_0_4_97
*1545 FILLER_0_5_105
*1546 FILLER_0_5_111
*1547 FILLER_0_5_113
*1548 FILLER_0_5_125
*1549 FILLER_0_5_137
*1550 FILLER_0_5_149
*1551 FILLER_0_5_15
*1552 FILLER_0_5_161
*1553 FILLER_0_5_167
*1554 FILLER_0_5_169
*1555 FILLER_0_5_181
*1556 FILLER_0_5_193
*1557 FILLER_0_5_205
*1558 FILLER_0_5_217
*1559 FILLER_0_5_223
*1560 FILLER_0_5_225
*1561 FILLER_0_5_237
*1562 FILLER_0_5_249
*1563 FILLER_0_5_261
*1564 FILLER_0_5_27
*1565 FILLER_0_5_273
*1566 FILLER_0_5_279
*1567 FILLER_0_5_281
*1568 FILLER_0_5_293
*1569 FILLER_0_5_3
*1570 FILLER_0_5_305
*1571 FILLER_0_5_317
*1572 FILLER_0_5_329
*1573 FILLER_0_5_39
*1574 FILLER_0_5_43
*1575 FILLER_0_5_52
*1576 FILLER_0_5_57
*1577 FILLER_0_5_69
*1578 FILLER_0_5_81
*1579 FILLER_0_5_93
*1580 FILLER_0_6_109
*1581 FILLER_0_6_121
*1582 FILLER_0_6_133
*1583 FILLER_0_6_139
*1584 FILLER_0_6_141
*1585 FILLER_0_6_149
*1586 FILLER_0_6_15
*1587 FILLER_0_6_154
*1588 FILLER_0_6_166
*1589 FILLER_0_6_178
*1590 FILLER_0_6_190
*1591 FILLER_0_6_197
*1592 FILLER_0_6_209
*1593 FILLER_0_6_216
*1594 FILLER_0_6_228
*1595 FILLER_0_6_240
*1596 FILLER_0_6_253
*1597 FILLER_0_6_265
*1598 FILLER_0_6_27
*1599 FILLER_0_6_277
*1600 FILLER_0_6_289
*1601 FILLER_0_6_29
*1602 FILLER_0_6_3
*1603 FILLER_0_6_301
*1604 FILLER_0_6_307
*1605 FILLER_0_6_309
*1606 FILLER_0_6_321
*1607 FILLER_0_6_333
*1608 FILLER_0_6_36
*1609 FILLER_0_6_40
*1610 FILLER_0_6_62
*1611 FILLER_0_6_66
*1612 FILLER_0_6_78
*1613 FILLER_0_6_85
*1614 FILLER_0_6_97
*1615 FILLER_0_7_105
*1616 FILLER_0_7_113
*1617 FILLER_0_7_132
*1618 FILLER_0_7_15
*1619 FILLER_0_7_165
*1620 FILLER_0_7_169
*1621 FILLER_0_7_181
*1622 FILLER_0_7_185
*1623 FILLER_0_7_215
*1624 FILLER_0_7_222
*1625 FILLER_0_7_236
*1626 FILLER_0_7_248
*1627 FILLER_0_7_260
*1628 FILLER_0_7_27
*1629 FILLER_0_7_272
*1630 FILLER_0_7_281
*1631 FILLER_0_7_293
*1632 FILLER_0_7_3
*1633 FILLER_0_7_305
*1634 FILLER_0_7_317
*1635 FILLER_0_7_329
*1636 FILLER_0_7_54
*1637 FILLER_0_7_94
*1638 FILLER_0_8_189
*1639 FILLER_0_8_193
*1640 FILLER_0_8_250
*1641 FILLER_0_8_269
*1642 FILLER_0_8_281
*1643 FILLER_0_8_293
*1644 FILLER_0_8_3
*1645 FILLER_0_8_305
*1646 FILLER_0_8_309
*1647 FILLER_0_8_321
*1648 FILLER_0_8_332
*1649 FILLER_0_8_37
*1650 FILLER_0_8_85
*1651 FILLER_0_8_97
*1652 FILLER_0_9_11
*1653 FILLER_0_9_113
*1654 FILLER_0_9_172
*1655 FILLER_0_9_267
*1656 FILLER_0_9_275
*1657 FILLER_0_9_292
*1658 FILLER_0_9_3
*1659 FILLER_0_9_304
*1660 FILLER_0_9_316
*1661 FILLER_0_9_326
*1662 FILLER_0_9_47
*1663 FILLER_0_9_55
*1664 FILLER_0_9_57
*1665 PHY_EDGE_ROW_0_Left_39
*1666 PHY_EDGE_ROW_0_Right_0
*1667 PHY_EDGE_ROW_10_Left_49
*1668 PHY_EDGE_ROW_10_Right_10
*1669 PHY_EDGE_ROW_11_Left_50
*1670 PHY_EDGE_ROW_11_Right_11
*1671 PHY_EDGE_ROW_12_Left_51
*1672 PHY_EDGE_ROW_12_Right_12
*1673 PHY_EDGE_ROW_13_Left_52
*1674 PHY_EDGE_ROW_13_Right_13
*1675 PHY_EDGE_ROW_14_Left_53