*SPEF "ieee 1481-1999"
*DESIGN "tt_um_wokwi_399169514887574529"
*DATE "23:12:50 Tuesday May 28, 2024"
*VENDOR "The OpenROAD Project"
*PROGRAM "OpenROAD"
*VERSION "da0053d7b0014ab9c87ea148875ff6c2a0f9b658"
*DESIGN_FLOW "NAME_SCOPE LOCAL" "PIN_CAP NONE"
*DIVIDER /
*DELIMITER :
*BUS_DELIMITER []
*T_UNIT 1 NS
*C_UNIT 1 PF
*R_UNIT 1 OHM
*L_UNIT 1 HENRY

*NAME_MAP
*3 clk
*4 ena
*5 rst_n
*6 ui_in[0]
*7 ui_in[1]
*8 ui_in[2]
*9 ui_in[3]
*10 ui_in[4]
*11 ui_in[5]
*12 ui_in[6]
*13 ui_in[7]
*14 uio_in[0]
*15 uio_in[1]
*16 uio_in[2]
*17 uio_in[3]
*18 uio_in[4]
*19 uio_in[5]
*20 uio_in[6]
*21 uio_in[7]
*22 net5
*23 net6
*24 net7
*25 net8
*26 net9
*27 net10
*28 net11
*29 net12
*30 net13
*31 net14
*32 net15
*33 net16
*34 net17
*35 net18
*36 net19
*37 net20
*38 uo_out[0]
*39 uo_out[1]
*40 uo_out[2]
*41 uo_out[3]
*42 uo_out[4]
*43 uo_out[5]
*44 uo_out[6]
*45 uo_out[7]
*46 _000_
*47 _001_
*48 _002_
*49 _003_
*50 _004_
*51 _005_
*52 _006_
*53 _007_
*54 _008_
*55 _009_
*56 _010_
*57 _011_
*58 _012_
*59 _013_
*60 _014_
*61 _015_
*62 _016_
*63 _017_
*64 _018_
*65 _019_
*66 _020_
*67 _021_
*68 _022_
*69 _023_
*70 _024_
*71 _025_
*72 _026_
*73 _027_
*74 _028_
*75 _029_
*76 _030_
*77 _031_
*78 _032_
*79 _033_
*80 _034_
*81 _035_
*82 _036_
*83 _037_
*84 _038_
*85 _039_
*86 _040_
*87 _041_
*88 _042_
*89 _043_
*90 _044_
*91 _045_
*92 _046_
*93 _047_
*94 _048_
*95 _049_
*96 _050_
*97 _051_
*98 _052_
*99 _053_
*100 _054_
*101 _055_
*102 _056_
*103 _057_
*104 _058_
*105 _059_
*106 _060_
*107 _061_
*108 _062_
*109 _063_
*110 _064_
*111 _065_
*112 _066_
*113 _067_
*114 _068_
*115 _069_
*116 _070_
*117 _071_
*118 _072_
*119 _073_
*120 _074_
*121 _075_
*122 _076_
*123 _077_
*124 _078_
*125 _079_
*126 _080_
*127 _081_
*128 _082_
*129 _083_
*130 _084_
*131 _085_
*132 _086_
*133 _087_
*134 _088_
*135 _089_
*136 _090_
*137 _091_
*138 _092_
*139 _093_
*140 _094_
*141 _095_
*142 _096_
*143 _097_
*144 _098_
*145 _099_
*146 _100_
*147 _101_
*148 _102_
*149 _103_
*150 _104_
*151 _105_
*152 _106_
*153 _107_
*154 _108_
*155 _109_
*156 _110_
*157 _111_
*158 _112_
*159 _113_
*160 _114_
*161 _115_
*162 _116_
*163 _117_
*164 _118_
*165 _119_
*166 _120_
*167 _121_
*168 _122_
*169 _123_
*170 _124_
*171 _125_
*172 _126_
*173 _127_
*174 _128_
*175 _129_
*176 _130_
*177 _131_
*178 _132_
*179 _133_
*180 _134_
*181 _135_
*182 _136_
*183 and1\.a
*184 and1\.b
*185 and11\.b
*186 and13\.b
*187 and15\.b
*188 and18\.b
*189 and25\.a
*190 and25\.b
*191 and27\.a
*192 and27\.b
*193 and29\.a
*194 and29\.b
*195 and3\.a
*196 and3\.b
*197 and31\.a
*198 and31\.b
*199 and33\.a
*200 and33\.b
*201 and35\.a
*202 and35\.b
*203 and37\.a
*204 and37\.b
*205 and39\.a
*206 and39\.b
*207 and41\.a
*208 and41\.b
*209 and43\.a
*210 and43\.b
*211 and45\.a
*212 and45\.b
*213 and47\.a
*214 and47\.b
*215 and5\.a
*216 and5\.b
*217 and7\.a
*218 and7\.b
*219 clknet_0_clk
*220 clknet_2_0__leaf_clk
*221 clknet_2_1__leaf_clk
*222 clknet_2_2__leaf_clk
*223 clknet_2_3__leaf_clk
*224 net1
*225 net2
*226 net21
*227 net22
*228 net23
*229 net24
*230 net25
*231 net26
*232 net27
*233 net28
*234 net29
*235 net3
*236 net30
*237 net31
*238 net32
*239 net33
*240 net34
*241 net35
*242 net36
*243 net37
*244 net38
*245 net39
*246 net4
*247 net40
*248 net41
*249 net42
*250 net43
*251 net44
*252 net45
*253 net46
*254 net47
*255 net48
*256 net49
*257 net50
*258 net51
*259 net52
*260 or40\.out
*261 xor74\.out
*262 xor76\.out
*263 xor78\.out
*264 FILLER_0_0_109
*265 FILLER_0_0_113
*266 FILLER_0_0_125
*267 FILLER_0_0_137
*268 FILLER_0_0_141
*269 FILLER_0_0_15
*270 FILLER_0_0_153
*271 FILLER_0_0_165
*272 FILLER_0_0_169
*273 FILLER_0_0_181
*274 FILLER_0_0_193
*275 FILLER_0_0_197
*276 FILLER_0_0_209
*277 FILLER_0_0_221
*278 FILLER_0_0_225
*279 FILLER_0_0_237
*280 FILLER_0_0_249
*281 FILLER_0_0_253
*282 FILLER_0_0_265
*283 FILLER_0_0_27
*284 FILLER_0_0_277
*285 FILLER_0_0_281
*286 FILLER_0_0_29
*287 FILLER_0_0_293
*288 FILLER_0_0_3
*289 FILLER_0_0_305
*290 FILLER_0_0_309
*291 FILLER_0_0_321
*292 FILLER_0_0_333
*293 FILLER_0_0_41
*294 FILLER_0_0_53
*295 FILLER_0_0_57
*296 FILLER_0_0_69
*297 FILLER_0_0_81
*298 FILLER_0_0_85
*299 FILLER_0_0_97
*300 FILLER_0_10_109
*301 FILLER_0_10_121
*302 FILLER_0_10_133
*303 FILLER_0_10_139
*304 FILLER_0_10_141
*305 FILLER_0_10_15
*306 FILLER_0_10_153
*307 FILLER_0_10_165
*308 FILLER_0_10_177
*309 FILLER_0_10_189
*310 FILLER_0_10_195
*311 FILLER_0_10_197
*312 FILLER_0_10_209
*313 FILLER_0_10_221
*314 FILLER_0_10_233
*315 FILLER_0_10_245
*316 FILLER_0_10_251
*317 FILLER_0_10_253
*318 FILLER_0_10_265
*319 FILLER_0_10_27
*320 FILLER_0_10_277
*321 FILLER_0_10_289
*322 FILLER_0_10_29
*323 FILLER_0_10_3
*324 FILLER_0_10_301
*325 FILLER_0_10_307
*326 FILLER_0_10_309
*327 FILLER_0_10_321
*328 FILLER_0_10_333
*329 FILLER_0_10_41
*330 FILLER_0_10_53
*331 FILLER_0_10_65
*332 FILLER_0_10_77
*333 FILLER_0_10_83
*334 FILLER_0_10_85
*335 FILLER_0_10_97
*336 FILLER_0_11_105
*337 FILLER_0_11_111
*338 FILLER_0_11_113
*339 FILLER_0_11_125
*340 FILLER_0_11_137
*341 FILLER_0_11_149
*342 FILLER_0_11_15
*343 FILLER_0_11_161
*344 FILLER_0_11_167
*345 FILLER_0_11_169
*346 FILLER_0_11_181
*347 FILLER_0_11_193
*348 FILLER_0_11_205
*349 FILLER_0_11_217
*350 FILLER_0_11_223
*351 FILLER_0_11_225
*352 FILLER_0_11_237
*353 FILLER_0_11_249
*354 FILLER_0_11_261
*355 FILLER_0_11_27
*356 FILLER_0_11_273
*357 FILLER_0_11_279
*358 FILLER_0_11_281
*359 FILLER_0_11_293
*360 FILLER_0_11_3
*361 FILLER_0_11_305
*362 FILLER_0_11_317
*363 FILLER_0_11_329
*364 FILLER_0_11_39
*365 FILLER_0_11_51
*366 FILLER_0_11_55
*367 FILLER_0_11_57
*368 FILLER_0_11_69
*369 FILLER_0_11_81
*370 FILLER_0_11_93
*371 FILLER_0_12_109
*372 FILLER_0_12_121
*373 FILLER_0_12_133
*374 FILLER_0_12_139
*375 FILLER_0_12_141
*376 FILLER_0_12_15
*377 FILLER_0_12_153
*378 FILLER_0_12_165
*379 FILLER_0_12_177
*380 FILLER_0_12_189
*381 FILLER_0_12_195
*382 FILLER_0_12_197
*383 FILLER_0_12_209
*384 FILLER_0_12_221
*385 FILLER_0_12_233
*386 FILLER_0_12_245
*387 FILLER_0_12_251
*388 FILLER_0_12_253
*389 FILLER_0_12_265
*390 FILLER_0_12_27
*391 FILLER_0_12_277
*392 FILLER_0_12_289
*393 FILLER_0_12_29
*394 FILLER_0_12_3
*395 FILLER_0_12_301
*396 FILLER_0_12_307
*397 FILLER_0_12_309
*398 FILLER_0_12_321
*399 FILLER_0_12_333
*400 FILLER_0_12_41
*401 FILLER_0_12_53
*402 FILLER_0_12_65
*403 FILLER_0_12_77
*404 FILLER_0_12_83
*405 FILLER_0_12_85
*406 FILLER_0_12_97
*407 FILLER_0_13_105
*408 FILLER_0_13_111
*409 FILLER_0_13_113
*410 FILLER_0_13_125
*411 FILLER_0_13_137
*412 FILLER_0_13_149
*413 FILLER_0_13_15
*414 FILLER_0_13_161
*415 FILLER_0_13_167
*416 FILLER_0_13_169
*417 FILLER_0_13_181
*418 FILLER_0_13_193
*419 FILLER_0_13_205
*420 FILLER_0_13_217
*421 FILLER_0_13_223
*422 FILLER_0_13_225
*423 FILLER_0_13_237
*424 FILLER_0_13_249
*425 FILLER_0_13_261
*426 FILLER_0_13_27
*427 FILLER_0_13_273
*428 FILLER_0_13_279
*429 FILLER_0_13_281
*430 FILLER_0_13_293
*431 FILLER_0_13_3
*432 FILLER_0_13_305
*433 FILLER_0_13_317
*434 FILLER_0_13_329
*435 FILLER_0_13_39
*436 FILLER_0_13_51
*437 FILLER_0_13_55
*438 FILLER_0_13_57
*439 FILLER_0_13_69
*440 FILLER_0_13_81
*441 FILLER_0_13_93
*442 FILLER_0_14_109
*443 FILLER_0_14_121
*444 FILLER_0_14_133
*445 FILLER_0_14_139
*446 FILLER_0_14_141
*447 FILLER_0_14_15
*448 FILLER_0_14_153
*449 FILLER_0_14_165
*450 FILLER_0_14_177
*451 FILLER_0_14_189
*452 FILLER_0_14_195
*453 FILLER_0_14_197
*454 FILLER_0_14_209
*455 FILLER_0_14_221
*456 FILLER_0_14_233
*457 FILLER_0_14_245
*458 FILLER_0_14_251
*459 FILLER_0_14_253
*460 FILLER_0_14_265
*461 FILLER_0_14_27
*462 FILLER_0_14_277
*463 FILLER_0_14_289
*464 FILLER_0_14_29
*465 FILLER_0_14_3
*466 FILLER_0_14_301
*467 FILLER_0_14_307
*468 FILLER_0_14_309
*469 FILLER_0_14_321
*470 FILLER_0_14_333
*471 FILLER_0_14_41
*472 FILLER_0_14_53
*473 FILLER_0_14_65
*474 FILLER_0_14_77
*475 FILLER_0_14_83
*476 FILLER_0_14_85
*477 FILLER_0_14_97
*478 FILLER_0_15_105
*479 FILLER_0_15_111
*480 FILLER_0_15_113
*481 FILLER_0_15_125
*482 FILLER_0_15_137
*483 FILLER_0_15_149
*484 FILLER_0_15_15
*485 FILLER_0_15_161
*486 FILLER_0_15_167
*487 FILLER_0_15_169
*488 FILLER_0_15_181
*489 FILLER_0_15_193
*490 FILLER_0_15_205
*491 FILLER_0_15_217
*492 FILLER_0_15_223
*493 FILLER_0_15_225
*494 FILLER_0_15_237
*495 FILLER_0_15_249
*496 FILLER_0_15_261
*497 FILLER_0_15_27
*498 FILLER_0_15_273
*499 FILLER_0_15_279
*500 FILLER_0_15_281
*501 FILLER_0_15_293
*502 FILLER_0_15_3
*503 FILLER_0_15_305
*504 FILLER_0_15_317
*505 FILLER_0_15_329
*506 FILLER_0_15_39
*507 FILLER_0_15_51
*508 FILLER_0_15_55
*509 FILLER_0_15_57
*510 FILLER_0_15_69
*511 FILLER_0_15_81
*512 FILLER_0_15_93
*513 FILLER_0_16_109
*514 FILLER_0_16_121
*515 FILLER_0_16_133
*516 FILLER_0_16_139
*517 FILLER_0_16_141
*518 FILLER_0_16_15
*519 FILLER_0_16_153
*520 FILLER_0_16_165
*521 FILLER_0_16_177
*522 FILLER_0_16_189
*523 FILLER_0_16_195
*524 FILLER_0_16_197
*525 FILLER_0_16_209
*526 FILLER_0_16_221
*527 FILLER_0_16_233
*528 FILLER_0_16_245
*529 FILLER_0_16_251
*530 FILLER_0_16_253
*531 FILLER_0_16_265
*532 FILLER_0_16_27
*533 FILLER_0_16_277
*534 FILLER_0_16_289
*535 FILLER_0_16_29
*536 FILLER_0_16_3
*537 FILLER_0_16_301
*538 FILLER_0_16_307
*539 FILLER_0_16_309
*540 FILLER_0_16_321
*541 FILLER_0_16_333
*542 FILLER_0_16_41
*543 FILLER_0_16_53
*544 FILLER_0_16_65
*545 FILLER_0_16_77
*546 FILLER_0_16_83
*547 FILLER_0_16_85
*548 FILLER_0_16_97
*549 FILLER_0_17_105
*550 FILLER_0_17_111
*551 FILLER_0_17_113
*552 FILLER_0_17_125
*553 FILLER_0_17_137
*554 FILLER_0_17_149
*555 FILLER_0_17_15
*556 FILLER_0_17_161
*557 FILLER_0_17_167
*558 FILLER_0_17_169
*559 FILLER_0_17_181
*560 FILLER_0_17_193
*561 FILLER_0_17_205
*562 FILLER_0_17_217
*563 FILLER_0_17_223
*564 FILLER_0_17_225
*565 FILLER_0_17_237
*566 FILLER_0_17_249
*567 FILLER_0_17_261
*568 FILLER_0_17_27
*569 FILLER_0_17_273
*570 FILLER_0_17_279
*571 FILLER_0_17_281
*572 FILLER_0_17_293
*573 FILLER_0_17_3
*574 FILLER_0_17_305
*575 FILLER_0_17_317
*576 FILLER_0_17_329
*577 FILLER_0_17_39
*578 FILLER_0_17_51
*579 FILLER_0_17_55
*580 FILLER_0_17_57
*581 FILLER_0_17_69
*582 FILLER_0_17_81
*583 FILLER_0_17_93
*584 FILLER_0_18_109
*585 FILLER_0_18_121
*586 FILLER_0_18_133
*587 FILLER_0_18_139
*588 FILLER_0_18_141
*589 FILLER_0_18_15
*590 FILLER_0_18_153
*591 FILLER_0_18_165
*592 FILLER_0_18_177
*593 FILLER_0_18_189
*594 FILLER_0_18_195
*595 FILLER_0_18_197
*596 FILLER_0_18_209
*597 FILLER_0_18_221
*598 FILLER_0_18_233
*599 FILLER_0_18_245
*600 FILLER_0_18_251
*601 FILLER_0_18_253
*602 FILLER_0_18_265
*603 FILLER_0_18_27
*604 FILLER_0_18_277
*605 FILLER_0_18_289
*606 FILLER_0_18_29
*607 FILLER_0_18_3
*608 FILLER_0_18_301
*609 FILLER_0_18_307
*610 FILLER_0_18_309
*611 FILLER_0_18_321
*612 FILLER_0_18_333
*613 FILLER_0_18_41
*614 FILLER_0_18_53
*615 FILLER_0_18_65
*616 FILLER_0_18_77
*617 FILLER_0_18_83
*618 FILLER_0_18_85
*619 FILLER_0_18_97
*620 FILLER_0_19_105
*621 FILLER_0_19_111
*622 FILLER_0_19_113
*623 FILLER_0_19_125
*624 FILLER_0_19_137
*625 FILLER_0_19_149
*626 FILLER_0_19_15
*627 FILLER_0_19_161
*628 FILLER_0_19_167
*629 FILLER_0_19_169
*630 FILLER_0_19_181
*631 FILLER_0_19_193
*632 FILLER_0_19_205
*633 FILLER_0_19_217
*634 FILLER_0_19_223
*635 FILLER_0_19_225
*636 FILLER_0_19_237
*637 FILLER_0_19_249
*638 FILLER_0_19_261
*639 FILLER_0_19_27
*640 FILLER_0_19_273
*641 FILLER_0_19_279
*642 FILLER_0_19_281
*643 FILLER_0_19_293
*644 FILLER_0_19_3
*645 FILLER_0_19_305
*646 FILLER_0_19_317
*647 FILLER_0_19_329
*648 FILLER_0_19_39
*649 FILLER_0_19_51
*650 FILLER_0_19_55
*651 FILLER_0_19_57
*652 FILLER_0_19_69
*653 FILLER_0_19_81
*654 FILLER_0_19_93
*655 FILLER_0_1_105
*656 FILLER_0_1_111
*657 FILLER_0_1_113
*658 FILLER_0_1_125
*659 FILLER_0_1_137
*660 FILLER_0_1_149
*661 FILLER_0_1_15
*662 FILLER_0_1_161
*663 FILLER_0_1_167
*664 FILLER_0_1_169
*665 FILLER_0_1_181
*666 FILLER_0_1_193
*667 FILLER_0_1_205
*668 FILLER_0_1_217
*669 FILLER_0_1_223
*670 FILLER_0_1_225
*671 FILLER_0_1_237
*672 FILLER_0_1_249
*673 FILLER_0_1_261
*674 FILLER_0_1_27
*675 FILLER_0_1_273
*676 FILLER_0_1_279
*677 FILLER_0_1_281
*678 FILLER_0_1_293
*679 FILLER_0_1_3
*680 FILLER_0_1_305
*681 FILLER_0_1_317
*682 FILLER_0_1_329
*683 FILLER_0_1_39
*684 FILLER_0_1_51
*685 FILLER_0_1_55
*686 FILLER_0_1_57
*687 FILLER_0_1_69
*688 FILLER_0_1_81
*689 FILLER_0_1_93
*690 FILLER_0_20_109
*691 FILLER_0_20_121
*692 FILLER_0_20_133
*693 FILLER_0_20_139
*694 FILLER_0_20_141
*695 FILLER_0_20_15
*696 FILLER_0_20_153
*697 FILLER_0_20_165
*698 FILLER_0_20_177
*699 FILLER_0_20_189
*700 FILLER_0_20_195
*701 FILLER_0_20_197
*702 FILLER_0_20_209
*703 FILLER_0_20_221
*704 FILLER_0_20_233
*705 FILLER_0_20_245
*706 FILLER_0_20_251
*707 FILLER_0_20_253
*708 FILLER_0_20_265
*709 FILLER_0_20_27
*710 FILLER_0_20_277
*711 FILLER_0_20_289
*712 FILLER_0_20_29
*713 FILLER_0_20_3
*714 FILLER_0_20_301
*715 FILLER_0_20_307
*716 FILLER_0_20_309
*717 FILLER_0_20_321
*718 FILLER_0_20_333
*719 FILLER_0_20_41
*720 FILLER_0_20_53
*721 FILLER_0_20_65
*722 FILLER_0_20_77
*723 FILLER_0_20_83
*724 FILLER_0_20_85
*725 FILLER_0_20_97
*726 FILLER_0_21_105
*727 FILLER_0_21_111
*728 FILLER_0_21_113
*729 FILLER_0_21_125
*730 FILLER_0_21_137
*731 FILLER_0_21_149
*732 FILLER_0_21_15
*733 FILLER_0_21_161
*734 FILLER_0_21_167
*735 FILLER_0_21_169
*736 FILLER_0_21_181
*737 FILLER_0_21_193
*738 FILLER_0_21_205
*739 FILLER_0_21_217
*740 FILLER_0_21_223
*741 FILLER_0_21_225
*742 FILLER_0_21_237
*743 FILLER_0_21_249
*744 FILLER_0_21_261
*745 FILLER_0_21_27
*746 FILLER_0_21_273
*747 FILLER_0_21_279
*748 FILLER_0_21_281
*749 FILLER_0_21_293
*750 FILLER_0_21_3
*751 FILLER_0_21_305
*752 FILLER_0_21_317
*753 FILLER_0_21_329
*754 FILLER_0_21_39
*755 FILLER_0_21_51
*756 FILLER_0_21_55
*757 FILLER_0_21_57
*758 FILLER_0_21_69
*759 FILLER_0_21_81
*760 FILLER_0_21_93
*761 FILLER_0_22_109
*762 FILLER_0_22_121
*763 FILLER_0_22_133
*764 FILLER_0_22_139
*765 FILLER_0_22_141
*766 FILLER_0_22_15
*767 FILLER_0_22_153
*768 FILLER_0_22_165
*769 FILLER_0_22_177
*770 FILLER_0_22_189
*771 FILLER_0_22_195
*772 FILLER_0_22_197
*773 FILLER_0_22_209
*774 FILLER_0_22_221
*775 FILLER_0_22_233
*776 FILLER_0_22_245
*777 FILLER_0_22_251
*778 FILLER_0_22_253
*779 FILLER_0_22_265
*780 FILLER_0_22_27
*781 FILLER_0_22_277
*782 FILLER_0_22_289
*783 FILLER_0_22_29
*784 FILLER_0_22_3
*785 FILLER_0_22_301
*786 FILLER_0_22_307
*787 FILLER_0_22_309
*788 FILLER_0_22_321
*789 FILLER_0_22_333
*790 FILLER_0_22_41
*791 FILLER_0_22_53
*792 FILLER_0_22_65
*793 FILLER_0_22_77
*794 FILLER_0_22_83
*795 FILLER_0_22_85
*796 FILLER_0_22_97
*797 FILLER_0_23_105
*798 FILLER_0_23_111
*799 FILLER_0_23_113
*800 FILLER_0_23_125
*801 FILLER_0_23_137
*802 FILLER_0_23_149
*803 FILLER_0_23_15
*804 FILLER_0_23_161
*805 FILLER_0_23_167
*806 FILLER_0_23_169
*807 FILLER_0_23_181
*808 FILLER_0_23_193
*809 FILLER_0_23_205
*810 FILLER_0_23_217
*811 FILLER_0_23_223
*812 FILLER_0_23_225
*813 FILLER_0_23_237
*814 FILLER_0_23_249
*815 FILLER_0_23_261
*816 FILLER_0_23_27
*817 FILLER_0_23_273
*818 FILLER_0_23_279
*819 FILLER_0_23_281
*820 FILLER_0_23_293
*821 FILLER_0_23_3
*822 FILLER_0_23_305
*823 FILLER_0_23_317
*824 FILLER_0_23_329
*825 FILLER_0_23_39
*826 FILLER_0_23_51
*827 FILLER_0_23_55
*828 FILLER_0_23_57
*829 FILLER_0_23_69
*830 FILLER_0_23_81
*831 FILLER_0_23_93
*832 FILLER_0_24_109
*833 FILLER_0_24_121
*834 FILLER_0_24_133
*835 FILLER_0_24_139
*836 FILLER_0_24_141
*837 FILLER_0_24_15
*838 FILLER_0_24_153
*839 FILLER_0_24_165
*840 FILLER_0_24_177
*841 FILLER_0_24_189
*842 FILLER_0_24_195
*843 FILLER_0_24_197
*844 FILLER_0_24_209
*845 FILLER_0_24_221
*846 FILLER_0_24_233
*847 FILLER_0_24_245
*848 FILLER_0_24_251
*849 FILLER_0_24_253
*850 FILLER_0_24_265
*851 FILLER_0_24_27
*852 FILLER_0_24_277
*853 FILLER_0_24_289
*854 FILLER_0_24_29
*855 FILLER_0_24_3
*856 FILLER_0_24_301
*857 FILLER_0_24_307
*858 FILLER_0_24_309
*859 FILLER_0_24_321
*860 FILLER_0_24_333
*861 FILLER_0_24_41
*862 FILLER_0_24_53
*863 FILLER_0_24_65
*864 FILLER_0_24_77
*865 FILLER_0_24_83
*866 FILLER_0_24_85
*867 FILLER_0_24_97
*868 FILLER_0_25_105
*869 FILLER_0_25_111
*870 FILLER_0_25_113
*871 FILLER_0_25_125
*872 FILLER_0_25_137
*873 FILLER_0_25_149
*874 FILLER_0_25_15
*875 FILLER_0_25_161
*876 FILLER_0_25_167
*877 FILLER_0_25_169
*878 FILLER_0_25_181
*879 FILLER_0_25_193
*880 FILLER_0_25_205
*881 FILLER_0_25_217
*882 FILLER_0_25_223
*883 FILLER_0_25_225
*884 FILLER_0_25_237
*885 FILLER_0_25_249
*886 FILLER_0_25_261
*887 FILLER_0_25_27
*888 FILLER_0_25_273
*889 FILLER_0_25_279
*890 FILLER_0_25_281
*891 FILLER_0_25_293
*892 FILLER_0_25_3
*893 FILLER_0_25_305
*894 FILLER_0_25_317
*895 FILLER_0_25_329
*896 FILLER_0_25_39
*897 FILLER_0_25_51
*898 FILLER_0_25_55
*899 FILLER_0_25_57
*900 FILLER_0_25_69
*901 FILLER_0_25_81
*902 FILLER_0_25_93
*903 FILLER_0_26_109
*904 FILLER_0_26_121
*905 FILLER_0_26_129
*906 FILLER_0_26_134
*907 FILLER_0_26_141
*908 FILLER_0_26_15
*909 FILLER_0_26_158
*910 FILLER_0_26_166
*911 FILLER_0_26_192
*912 FILLER_0_26_197
*913 FILLER_0_26_205
*914 FILLER_0_26_240
*915 FILLER_0_26_253
*916 FILLER_0_26_265
*917 FILLER_0_26_27
*918 FILLER_0_26_277
*919 FILLER_0_26_289
*920 FILLER_0_26_29
*921 FILLER_0_26_3
*922 FILLER_0_26_301
*923 FILLER_0_26_307
*924 FILLER_0_26_309
*925 FILLER_0_26_321
*926 FILLER_0_26_333
*927 FILLER_0_26_41
*928 FILLER_0_26_53
*929 FILLER_0_26_65
*930 FILLER_0_26_77
*931 FILLER_0_26_83
*932 FILLER_0_26_85
*933 FILLER_0_26_97
*934 FILLER_0_27_105
*935 FILLER_0_27_111
*936 FILLER_0_27_113
*937 FILLER_0_27_130
*938 FILLER_0_27_137
*939 FILLER_0_27_15
*940 FILLER_0_27_162
*941 FILLER_0_27_169
*942 FILLER_0_27_204
*943 FILLER_0_27_240
*944 FILLER_0_27_252
*945 FILLER_0_27_264
*946 FILLER_0_27_27
*947 FILLER_0_27_276
*948 FILLER_0_27_281
*949 FILLER_0_27_3
*950 FILLER_0_27_313
*951 FILLER_0_27_325
*952 FILLER_0_27_333
*953 FILLER_0_27_39
*954 FILLER_0_27_51
*955 FILLER_0_27_55
*956 FILLER_0_27_57
*957 FILLER_0_27_69
*958 FILLER_0_27_81
*959 FILLER_0_27_93
*960 FILLER_0_28_109
*961 FILLER_0_28_139
*962 FILLER_0_28_141
*963 FILLER_0_28_15
*964 FILLER_0_28_164
*965 FILLER_0_28_197
*966 FILLER_0_28_205
*967 FILLER_0_28_223
*968 FILLER_0_28_237
*969 FILLER_0_28_265
*970 FILLER_0_28_27
*971 FILLER_0_28_287
*972 FILLER_0_28_29
*973 FILLER_0_28_3
*974 FILLER_0_28_307
*975 FILLER_0_28_328
*976 FILLER_0_28_334
*977 FILLER_0_28_41
*978 FILLER_0_28_53
*979 FILLER_0_28_65
*980 FILLER_0_28_77
*981 FILLER_0_28_83
*982 FILLER_0_28_85
*983 FILLER_0_28_97
*984 FILLER_0_29_105
*985 FILLER_0_29_111
*986 FILLER_0_29_113
*987 FILLER_0_29_136
*988 FILLER_0_29_149
*989 FILLER_0_29_15
*990 FILLER_0_29_161
*991 FILLER_0_29_167
*992 FILLER_0_29_169
*993 FILLER_0_29_200
*994 FILLER_0_29_206
*995 FILLER_0_29_223
*996 FILLER_0_29_225
*997 FILLER_0_29_237
*998 FILLER_0_29_265
*999 FILLER_0_29_27
*1000 FILLER_0_29_272
*1001 FILLER_0_29_3
*1002 FILLER_0_29_308
*1003 FILLER_0_29_333
*1004 FILLER_0_29_39
*1005 FILLER_0_29_51
*1006 FILLER_0_29_55
*1007 FILLER_0_29_57
*1008 FILLER_0_29_69
*1009 FILLER_0_29_81
*1010 FILLER_0_29_93
*1011 FILLER_0_2_109
*1012 FILLER_0_2_121
*1013 FILLER_0_2_133
*1014 FILLER_0_2_139
*1015 FILLER_0_2_141
*1016 FILLER_0_2_15
*1017 FILLER_0_2_153
*1018 FILLER_0_2_165
*1019 FILLER_0_2_177
*1020 FILLER_0_2_189
*1021 FILLER_0_2_195
*1022 FILLER_0_2_197
*1023 FILLER_0_2_209
*1024 FILLER_0_2_221
*1025 FILLER_0_2_233
*1026 FILLER_0_2_245
*1027 FILLER_0_2_251
*1028 FILLER_0_2_253
*1029 FILLER_0_2_265
*1030 FILLER_0_2_27
*1031 FILLER_0_2_277
*1032 FILLER_0_2_289
*1033 FILLER_0_2_29
*1034 FILLER_0_2_3
*1035 FILLER_0_2_301
*1036 FILLER_0_2_307
*1037 FILLER_0_2_309
*1038 FILLER_0_2_321
*1039 FILLER_0_2_333
*1040 FILLER_0_2_41
*1041 FILLER_0_2_53
*1042 FILLER_0_2_65
*1043 FILLER_0_2_77
*1044 FILLER_0_2_83
*1045 FILLER_0_2_85
*1046 FILLER_0_2_97
*1047 FILLER_0_30_109
*1048 FILLER_0_30_121
*1049 FILLER_0_30_126
*1050 FILLER_0_30_138
*1051 FILLER_0_30_141
*1052 FILLER_0_30_149
*1053 FILLER_0_30_15
*1054 FILLER_0_30_155
*1055 FILLER_0_30_167
*1056 FILLER_0_30_171
*1057 FILLER_0_30_194
*1058 FILLER_0_30_197
*1059 FILLER_0_30_209
*1060 FILLER_0_30_215
*1061 FILLER_0_30_227
*1062 FILLER_0_30_239
*1063 FILLER_0_30_251
*1064 FILLER_0_30_262
*1065 FILLER_0_30_27
*1066 FILLER_0_30_29
*1067 FILLER_0_30_3
*1068 FILLER_0_30_302
*1069 FILLER_0_30_333
*1070 FILLER_0_30_41
*1071 FILLER_0_30_53
*1072 FILLER_0_30_65
*1073 FILLER_0_30_77
*1074 FILLER_0_30_83
*1075 FILLER_0_30_85
*1076 FILLER_0_30_97
*1077 FILLER_0_31_105
*1078 FILLER_0_31_111
*1079 FILLER_0_31_113
*1080 FILLER_0_31_121
*1081 FILLER_0_31_133
*1082 FILLER_0_31_145
*1083 FILLER_0_31_15
*1084 FILLER_0_31_163
*1085 FILLER_0_31_167
*1086 FILLER_0_31_169
*1087 FILLER_0_31_173
*1088 FILLER_0_31_177
*1089 FILLER_0_31_185
*1090 FILLER_0_31_201
*1091 FILLER_0_31_213
*1092 FILLER_0_31_220
*1093 FILLER_0_31_239
*1094 FILLER_0_31_243
*1095 FILLER_0_31_250
*1096 FILLER_0_31_259
*1097 FILLER_0_31_27
*1098 FILLER_0_31_276
*1099 FILLER_0_31_284
*1100 FILLER_0_31_292
*1101 FILLER_0_31_3
*1102 FILLER_0_31_330
*1103 FILLER_0_31_334
*1104 FILLER_0_31_39
*1105 FILLER_0_31_51
*1106 FILLER_0_31_55
*1107 FILLER_0_31_57
*1108 FILLER_0_31_69
*1109 FILLER_0_31_81
*1110 FILLER_0_31_93
*1111 FILLER_0_32_105
*1112 FILLER_0_32_120
*1113 FILLER_0_32_133
*1114 FILLER_0_32_139
*1115 FILLER_0_32_141
*1116 FILLER_0_32_15
*1117 FILLER_0_32_150
*1118 FILLER_0_32_167
*1119 FILLER_0_32_187
*1120 FILLER_0_32_218
*1121 FILLER_0_32_222
*1122 FILLER_0_32_249
*1123 FILLER_0_32_260
*1124 FILLER_0_32_27
*1125 FILLER_0_32_282
*1126 FILLER_0_32_29
*1127 FILLER_0_32_294
*1128 FILLER_0_32_3
*1129 FILLER_0_32_300
*1130 FILLER_0_32_324
*1131 FILLER_0_32_334
*1132 FILLER_0_32_41
*1133 FILLER_0_32_53
*1134 FILLER_0_32_65
*1135 FILLER_0_32_77
*1136 FILLER_0_32_83
*1137 FILLER_0_32_85
*1138 FILLER_0_32_97
*1139 FILLER_0_33_105
*1140 FILLER_0_33_113
*1141 FILLER_0_33_141
*1142 FILLER_0_33_149
*1143 FILLER_0_33_15
*1144 FILLER_0_33_161
*1145 FILLER_0_33_167
*1146 FILLER_0_33_169
*1147 FILLER_0_33_182
*1148 FILLER_0_33_194
*1149 FILLER_0_33_202
*1150 FILLER_0_33_214
*1151 FILLER_0_33_222
*1152 FILLER_0_33_231
*1153 FILLER_0_33_239
*1154 FILLER_0_33_254
*1155 FILLER_0_33_27
*1156 FILLER_0_33_277
*1157 FILLER_0_33_281
*1158 FILLER_0_33_293
*1159 FILLER_0_33_3
*1160 FILLER_0_33_301
*1161 FILLER_0_33_327
*1162 FILLER_0_33_39
*1163 FILLER_0_33_51
*1164 FILLER_0_33_55
*1165 FILLER_0_33_57
*1166 FILLER_0_33_69
*1167 FILLER_0_33_81
*1168 FILLER_0_33_93
*1169 FILLER_0_34_109
*1170 FILLER_0_34_117
*1171 FILLER_0_34_126
*1172 FILLER_0_34_132
*1173 FILLER_0_34_141
*1174 FILLER_0_34_15
*1175 FILLER_0_34_153
*1176 FILLER_0_34_165
*1177 FILLER_0_34_175
*1178 FILLER_0_34_195
*1179 FILLER_0_34_206
*1180 FILLER_0_34_224
*1181 FILLER_0_34_242
*1182 FILLER_0_34_248
*1183 FILLER_0_34_253
*1184 FILLER_0_34_262
*1185 FILLER_0_34_269
*1186 FILLER_0_34_27
*1187 FILLER_0_34_280
*1188 FILLER_0_34_29
*1189 FILLER_0_34_291
*1190 FILLER_0_34_3
*1191 FILLER_0_34_306
*1192 FILLER_0_34_309
*1193 FILLER_0_34_329
*1194 FILLER_0_34_41
*1195 FILLER_0_34_53
*1196 FILLER_0_34_65
*1197 FILLER_0_34_77
*1198 FILLER_0_34_83
*1199 FILLER_0_34_85
*1200 FILLER_0_34_97
*1201 FILLER_0_35_105
*1202 FILLER_0_35_111
*1203 FILLER_0_35_113
*1204 FILLER_0_35_119
*1205 FILLER_0_35_126
*1206 FILLER_0_35_143
*1207 FILLER_0_35_15
*1208 FILLER_0_35_150
*1209 FILLER_0_35_162
*1210 FILLER_0_35_197
*1211 FILLER_0_35_207
*1212 FILLER_0_35_222
*1213 FILLER_0_35_229
*1214 FILLER_0_35_241
*1215 FILLER_0_35_256
*1216 FILLER_0_35_264
*1217 FILLER_0_35_27
*1218 FILLER_0_35_270
*1219 FILLER_0_35_3
*1220 FILLER_0_35_334
*1221 FILLER_0_35_39
*1222 FILLER_0_35_51
*1223 FILLER_0_35_55
*1224 FILLER_0_35_57
*1225 FILLER_0_35_69
*1226 FILLER_0_35_81
*1227 FILLER_0_35_93
*1228 FILLER_0_36_109
*1229 FILLER_0_36_138
*1230 FILLER_0_36_15
*1231 FILLER_0_36_154
*1232 FILLER_0_36_164
*1233 FILLER_0_36_168
*1234 FILLER_0_36_174
*1235 FILLER_0_36_216
*1236 FILLER_0_36_228
*1237 FILLER_0_36_260
*1238 FILLER_0_36_27
*1239 FILLER_0_36_29
*1240 FILLER_0_36_3
*1241 FILLER_0_36_305
*1242 FILLER_0_36_321
*1243 FILLER_0_36_333
*1244 FILLER_0_36_41
*1245 FILLER_0_36_53
*1246 FILLER_0_36_65
*1247 FILLER_0_36_77
*1248 FILLER_0_36_83
*1249 FILLER_0_36_85
*1250 FILLER_0_36_97
*1251 FILLER_0_37_105
*1252 FILLER_0_37_111
*1253 FILLER_0_37_113
*1254 FILLER_0_37_121
*1255 FILLER_0_37_15
*1256 FILLER_0_37_154
*1257 FILLER_0_37_158
*1258 FILLER_0_37_167
*1259 FILLER_0_37_169
*1260 FILLER_0_37_197
*1261 FILLER_0_37_210
*1262 FILLER_0_37_222
*1263 FILLER_0_37_225
*1264 FILLER_0_37_248
*1265 FILLER_0_37_27
*1266 FILLER_0_37_270
*1267 FILLER_0_37_278
*1268 FILLER_0_37_281
*1269 FILLER_0_37_3
*1270 FILLER_0_37_331
*1271 FILLER_0_37_39
*1272 FILLER_0_37_51
*1273 FILLER_0_37_55
*1274 FILLER_0_37_57
*1275 FILLER_0_37_69
*1276 FILLER_0_37_81
*1277 FILLER_0_37_93
*1278 FILLER_0_38_10
*1279 FILLER_0_38_102
*1280 FILLER_0_38_106
*1281 FILLER_0_38_110
*1282 FILLER_0_38_113
*1283 FILLER_0_38_118
*1284 FILLER_0_38_131
*1285 FILLER_0_38_14
*1286 FILLER_0_38_141
*1287 FILLER_0_38_148
*1288 FILLER_0_38_160
*1289 FILLER_0_38_169
*1290 FILLER_0_38_18
*1291 FILLER_0_38_181
*1292 FILLER_0_38_194
*1293 FILLER_0_38_197
*1294 FILLER_0_38_209
*1295 FILLER_0_38_22
*1296 FILLER_0_38_221
*1297 FILLER_0_38_225
*1298 FILLER_0_38_233
*1299 FILLER_0_38_261
*1300 FILLER_0_38_273
*1301 FILLER_0_38_279
*1302 FILLER_0_38_307
*1303 FILLER_0_38_312
*1304 FILLER_0_38_318
*1305 FILLER_0_38_32
*1306 FILLER_0_38_330
*1307 FILLER_0_38_334
*1308 FILLER_0_38_38
*1309 FILLER_0_38_42
*1310 FILLER_0_38_46
*1311 FILLER_0_38_50
*1312 FILLER_0_38_54
*1313 FILLER_0_38_57
*1314 FILLER_0_38_6
*1315 FILLER_0_38_62
*1316 FILLER_0_38_66
*1317 FILLER_0_38_70
*1318 FILLER_0_38_74
*1319 FILLER_0_38_78
*1320 FILLER_0_38_88
*1321 FILLER_0_38_94
*1322 FILLER_0_38_98
*1323 FILLER_0_3_105
*1324 FILLER_0_3_111
*1325 FILLER_0_3_113
*1326 FILLER_0_3_125
*1327 FILLER_0_3_137
*1328 FILLER_0_3_149
*1329 FILLER_0_3_15
*1330 FILLER_0_3_161
*1331 FILLER_0_3_167
*1332 FILLER_0_3_169
*1333 FILLER_0_3_181
*1334 FILLER_0_3_193
*1335 FILLER_0_3_205
*1336 FILLER_0_3_217
*1337 FILLER_0_3_223
*1338 FILLER_0_3_225
*1339 FILLER_0_3_237
*1340 FILLER_0_3_249
*1341 FILLER_0_3_261
*1342 FILLER_0_3_27
*1343 FILLER_0_3_273
*1344 FILLER_0_3_279
*1345 FILLER_0_3_281
*1346 FILLER_0_3_293
*1347 FILLER_0_3_3
*1348 FILLER_0_3_305
*1349 FILLER_0_3_317
*1350 FILLER_0_3_329
*1351 FILLER_0_3_39
*1352 FILLER_0_3_51
*1353 FILLER_0_3_55
*1354 FILLER_0_3_57
*1355 FILLER_0_3_69
*1356 FILLER_0_3_81
*1357 FILLER_0_3_93
*1358 FILLER_0_4_109
*1359 FILLER_0_4_121
*1360 FILLER_0_4_133
*1361 FILLER_0_4_139
*1362 FILLER_0_4_141
*1363 FILLER_0_4_15
*1364 FILLER_0_4_153
*1365 FILLER_0_4_165
*1366 FILLER_0_4_177
*1367 FILLER_0_4_189
*1368 FILLER_0_4_195
*1369 FILLER_0_4_197
*1370 FILLER_0_4_209
*1371 FILLER_0_4_221
*1372 FILLER_0_4_233
*1373 FILLER_0_4_245
*1374 FILLER_0_4_251
*1375 FILLER_0_4_253
*1376 FILLER_0_4_265
*1377 FILLER_0_4_27
*1378 FILLER_0_4_277
*1379 FILLER_0_4_289
*1380 FILLER_0_4_29
*1381 FILLER_0_4_3
*1382 FILLER_0_4_301
*1383 FILLER_0_4_307
*1384 FILLER_0_4_309
*1385 FILLER_0_4_321
*1386 FILLER_0_4_333
*1387 FILLER_0_4_41
*1388 FILLER_0_4_53
*1389 FILLER_0_4_65
*1390 FILLER_0_4_77
*1391 FILLER_0_4_83
*1392 FILLER_0_4_85
*1393 FILLER_0_4_97
*1394 FILLER_0_5_105
*1395 FILLER_0_5_111
*1396 FILLER_0_5_113
*1397 FILLER_0_5_125
*1398 FILLER_0_5_137
*1399 FILLER_0_5_149
*1400 FILLER_0_5_15
*1401 FILLER_0_5_161
*1402 FILLER_0_5_167
*1403 FILLER_0_5_169
*1404 FILLER_0_5_181
*1405 FILLER_0_5_193
*1406 FILLER_0_5_205
*1407 FILLER_0_5_217
*1408 FILLER_0_5_223
*1409 FILLER_0_5_225
*1410 FILLER_0_5_237
*1411 FILLER_0_5_249
*1412 FILLER_0_5_261
*1413 FILLER_0_5_27
*1414 FILLER_0_5_273
*1415 FILLER_0_5_279
*1416 FILLER_0_5_281
*1417 FILLER_0_5_293
*1418 FILLER_0_5_3
*1419 FILLER_0_5_305
*1420 FILLER_0_5_317
*1421 FILLER_0_5_329
*1422 FILLER_0_5_39
*1423 FILLER_0_5_51
*1424 FILLER_0_5_55
*1425 FILLER_0_5_57
*1426 FILLER_0_5_69
*1427 FILLER_0_5_81
*1428 FILLER_0_5_93
*1429 FILLER_0_6_109
*1430 FILLER_0_6_121
*1431 FILLER_0_6_133
*1432 FILLER_0_6_139
*1433 FILLER_0_6_141
*1434 FILLER_0_6_15
*1435 FILLER_0_6_153
*1436 FILLER_0_6_165
*1437 FILLER_0_6_177
*1438 FILLER_0_6_189
*1439 FILLER_0_6_195
*1440 FILLER_0_6_197
*1441 FILLER_0_6_209
*1442 FILLER_0_6_221
*1443 FILLER_0_6_233
*1444 FILLER_0_6_245
*1445 FILLER_0_6_251
*1446 FILLER_0_6_253
*1447 FILLER_0_6_265
*1448 FILLER_0_6_27
*1449 FILLER_0_6_277
*1450 FILLER_0_6_289
*1451 FILLER_0_6_29
*1452 FILLER_0_6_3
*1453 FILLER_0_6_301
*1454 FILLER_0_6_307
*1455 FILLER_0_6_309
*1456 FILLER_0_6_321
*1457 FILLER_0_6_333
*1458 FILLER_0_6_41
*1459 FILLER_0_6_53
*1460 FILLER_0_6_65
*1461 FILLER_0_6_77
*1462 FILLER_0_6_83
*1463 FILLER_0_6_85
*1464 FILLER_0_6_97
*1465 FILLER_0_7_105
*1466 FILLER_0_7_111
*1467 FILLER_0_7_113
*1468 FILLER_0_7_125
*1469 FILLER_0_7_137
*1470 FILLER_0_7_149
*1471 FILLER_0_7_15
*1472 FILLER_0_7_161
*1473 FILLER_0_7_167
*1474 FILLER_0_7_169
*1475 FILLER_0_7_181
*1476 FILLER_0_7_193
*1477 FILLER_0_7_205
*1478 FILLER_0_7_217
*1479 FILLER_0_7_223
*1480 FILLER_0_7_225
*1481 FILLER_0_7_237
*1482 FILLER_0_7_249
*1483 FILLER_0_7_261
*1484 FILLER_0_7_27
*1485 FILLER_0_7_273
*1486 FILLER_0_7_279
*1487 FILLER_0_7_281
*1488 FILLER_0_7_293
*1489 FILLER_0_7_3
*1490 FILLER_0_7_305
*1491 FILLER_0_7_317
*1492 FILLER_0_7_329
*1493 FILLER_0_7_39
*1494 FILLER_0_7_51
*1495 FILLER_0_7_55
*1496 FILLER_0_7_57
*1497 FILLER_0_7_69
*1498 FILLER_0_7_81
*1499 FILLER_0_7_93
*1500 FILLER_0_8_109
*1501 FILLER_0_8_121
*1502 FILLER_0_8_133
*1503 FILLER_0_8_139
*1504 FILLER_0_8_141
*1505 FILLER_0_8_15
*1506 FILLER_0_8_153
*1507 FILLER_0_8_165
*1508 FILLER_0_8_177
*1509 FILLER_0_8_189
*1510 FILLER_0_8_195
*1511 FILLER_0_8_197
*1512 FILLER_0_8_209
*1513 FILLER_0_8_221
*1514 FILLER_0_8_233
*1515 FILLER_0_8_245
*1516 FILLER_0_8_251
*1517 FILLER_0_8_253
*1518 FILLER_0_8_265
*1519 FILLER_0_8_27
*1520 FILLER_0_8_277
*1521 FILLER_0_8_289
*1522 FILLER_0_8_29
*1523 FILLER_0_8_3
*1524 FILLER_0_8_301
*1525 FILLER_0_8_307
*1526 FILLER_0_8_309
*1527 FILLER_0_8_321
*1528 FILLER_0_8_333
*1529 FILLER_0_8_41
*1530 FILLER_0_8_53
*1531 FILLER_0_8_65
*1532 FILLER_0_8_77
*1533 FILLER_0_8_83
*1534 FILLER_0_8_85
*1535 FILLER_0_8_97
*1536 FILLER_0_9_105
*1537 FILLER_0_9_111
*1538 FILLER_0_9_113
*1539 FILLER_0_9_125
*1540 FILLER_0_9_137
*1541 FILLER_0_9_149