*SPEF "ieee 1481-1999"
*DESIGN "tt_um_The_Chairman_send_receive"
*DATE "15:50:07 Monday May 13, 2024"
*VENDOR "The OpenROAD Project"
*PROGRAM "OpenROAD"
*VERSION "da0053d7b0014ab9c87ea148875ff6c2a0f9b658"
*DESIGN_FLOW "NAME_SCOPE LOCAL" "PIN_CAP NONE"
*DIVIDER /
*DELIMITER :
*BUS_DELIMITER []
*T_UNIT 1 NS
*C_UNIT 1 PF
*R_UNIT 1 OHM
*L_UNIT 1 HENRY

*NAME_MAP
*3 clk
*4 ena
*5 rst_n
*6 ui_in[0]
*7 ui_in[1]
*8 ui_in[2]
*9 ui_in[3]
*10 ui_in[4]
*11 ui_in[5]
*12 ui_in[6]
*13 ui_in[7]
*14 uio_in[0]
*15 uio_in[1]
*16 uio_in[2]
*17 uio_in[3]
*18 uio_in[4]
*19 uio_in[5]
*20 uio_in[6]
*21 uio_in[7]
*22 net24
*23 net25
*24 net26
*25 net27
*26 net28
*27 net29
*28 net30
*29 net31
*30 net32
*31 net33
*32 net34
*33 net35
*34 net36
*35 net37
*36 net38
*37 net39
*38 uo_out[0]
*39 uo_out[1]
*40 uo_out[2]
*41 uo_out[3]
*42 uo_out[4]
*43 uo_out[5]
*44 uo_out[6]
*45 uo_out[7]
*46 _000_
*47 _001_
*48 _002_
*49 _003_
*50 _004_
*51 _005_
*52 _006_
*53 _007_
*54 _008_
*55 _009_
*56 _010_
*57 _011_
*58 _012_
*59 _013_
*60 _014_
*61 _015_
*62 _016_
*63 _017_
*64 _018_
*65 _019_
*66 _020_
*67 _021_
*68 _022_
*69 _023_
*70 _024_
*71 _025_
*72 _026_
*73 _027_
*74 _028_
*75 _029_
*76 _030_
*77 _031_
*78 _032_
*79 _033_
*80 _034_
*81 _035_
*82 _036_
*83 _037_
*84 _038_
*85 _039_
*86 _040_
*87 _041_
*88 _042_
*89 _043_
*90 _044_
*91 _045_
*92 _046_
*93 _047_
*94 _048_
*95 _049_
*96 _050_
*97 _051_
*98 _052_
*99 _053_
*100 _054_
*101 _055_
*102 _056_
*103 _057_
*104 _058_
*105 _059_
*106 _060_
*107 _061_
*108 _062_
*109 _063_
*110 _064_
*111 _065_
*112 _066_
*113 _067_
*114 _068_
*115 _069_
*116 _070_
*117 _071_
*118 _072_
*119 _073_
*120 _074_
*121 _075_
*122 _076_
*123 _077_
*124 _078_
*125 _079_
*126 _080_
*127 _081_
*128 _082_
*129 _083_
*130 _084_
*131 _085_
*132 _086_
*133 _087_
*134 _088_
*135 _089_
*136 _090_
*137 _091_
*138 _092_
*139 _093_
*140 _094_
*141 _095_
*142 _096_
*143 _097_
*144 _098_
*145 _099_
*146 _100_
*147 _101_
*148 _102_
*149 _103_
*150 _104_
*151 _105_
*152 _106_
*153 _107_
*154 _108_
*155 _109_
*156 _110_
*157 _111_
*158 _112_
*159 _113_
*160 _114_
*161 _115_
*162 _116_
*163 _117_
*164 _118_
*165 _119_
*166 _120_
*167 _121_
*168 _122_
*169 _123_
*170 _124_
*171 _125_
*172 _126_
*173 _127_
*174 _128_
*175 _129_
*176 _130_
*177 _131_
*178 _132_
*179 _133_
*180 _134_
*181 _135_
*182 _136_
*183 _137_
*184 _138_
*185 _139_
*186 _140_
*187 _141_
*188 _142_
*189 _143_
*190 _144_
*191 _145_
*192 _146_
*193 _147_
*194 _148_
*195 _149_
*196 _150_
*197 _151_
*198 _152_
*199 _153_
*200 _154_
*201 _155_
*202 _156_
*203 _157_
*204 _158_
*205 _159_
*206 _160_
*207 _161_
*208 _162_
*209 _163_
*210 _164_
*211 _165_
*212 _166_
*213 _167_
*214 _168_
*215 _169_
*216 _170_
*217 _171_
*218 _172_
*219 _173_
*220 _174_
*221 _175_
*222 _176_
*223 _177_
*224 _178_
*225 _179_
*226 _180_
*227 _181_
*228 _182_
*229 _183_
*230 _184_
*231 _185_
*232 _186_
*233 _187_
*234 _188_
*235 _189_
*236 _190_
*237 _191_
*238 _192_
*239 _193_
*240 _194_
*241 _195_
*242 _196_
*243 _197_
*244 _198_
*245 _199_
*246 clknet_0_clk
*247 clknet_3_0__leaf_clk
*248 clknet_3_1__leaf_clk
*249 clknet_3_2__leaf_clk
*250 clknet_3_3__leaf_clk
*251 clknet_3_4__leaf_clk
*252 clknet_3_5__leaf_clk
*253 clknet_3_6__leaf_clk
*254 clknet_3_7__leaf_clk
*255 cnt\[0\]
*256 cnt\[10\]
*257 cnt\[11\]
*258 cnt\[12\]
*259 cnt\[13\]
*260 cnt\[1\]
*261 cnt\[2\]
*262 cnt\[3\]
*263 cnt\[4\]
*264 cnt\[5\]
*265 cnt\[6\]
*266 cnt\[7\]
*267 cnt\[8\]
*268 cnt\[9\]
*269 inputs_candidate\[10\]
*270 inputs_candidate\[11\]
*271 inputs_candidate\[12\]
*272 inputs_candidate\[13\]
*273 inputs_candidate\[14\]
*274 inputs_candidate\[15\]
*275 inputs_candidate\[16\]
*276 inputs_candidate\[17\]
*277 inputs_candidate\[1\]
*278 inputs_candidate\[2\]
*279 inputs_candidate\[3\]
*280 inputs_candidate\[4\]
*281 inputs_candidate\[5\]
*282 inputs_candidate\[6\]
*283 inputs_candidate\[7\]
*284 inputs_candidate\[8\]
*285 inputs_candidate\[9\]
*286 inputs_ff\[0\]
*287 inputs_ff\[10\]
*288 inputs_ff\[11\]
*289 inputs_ff\[12\]
*290 inputs_ff\[13\]
*291 inputs_ff\[14\]
*292 inputs_ff\[15\]
*293 inputs_ff\[16\]
*294 inputs_ff\[17\]
*295 inputs_ff\[1\]
*296 inputs_ff\[2\]
*297 inputs_ff\[3\]
*298 inputs_ff\[4\]
*299 inputs_ff\[5\]
*300 inputs_ff\[6\]
*301 inputs_ff\[7\]
*302 inputs_ff\[8\]
*303 inputs_ff\[9\]
*304 inputs_sync\[0\]
*305 inputs_sync\[10\]
*306 inputs_sync\[11\]
*307 inputs_sync\[12\]
*308 inputs_sync\[13\]
*309 inputs_sync\[14\]
*310 inputs_sync\[15\]
*311 inputs_sync\[16\]
*312 inputs_sync\[17\]
*313 inputs_sync\[1\]
*314 inputs_sync\[2\]
*315 inputs_sync\[3\]
*316 inputs_sync\[4\]
*317 inputs_sync\[5\]
*318 inputs_sync\[6\]
*319 inputs_sync\[7\]
*320 inputs_sync\[8\]
*321 inputs_sync\[9\]
*322 my_design\.DEBUG_SIGS_GTKWAVE\.\@0\$slideswitch\[0\]
*323 my_design\.DEBUG_SIGS_GTKWAVE\.\@0\$slideswitch\[1\]
*324 my_design\.DEBUG_SIGS_GTKWAVE\.\@0\$slideswitch\[2\]
*325 my_design\.DEBUG_SIGS_GTKWAVE\.\@0\$slideswitch\[3\]
*326 my_design\.DEBUG_SIGS_GTKWAVE\.\@0\$slideswitch\[4\]
*327 my_design\.DEBUG_SIGS_GTKWAVE\.\@0\$slideswitch\[5\]
*328 my_design\.DEBUG_SIGS_GTKWAVE\.\@0\$slideswitch\[6\]
*329 my_design\.DEBUG_SIGS_GTKWAVE\.\@0\$slideswitch\[7\]
*330 my_design\.DEBUG_SIGS_GTKWAVE\.\@0\$sseg_decimal_point_n
*331 my_design\.DEBUG_SIGS_GTKWAVE\.\@0\$sseg_segment_n\[0\]
*332 my_design\.DEBUG_SIGS_GTKWAVE\.\@0\$sseg_segment_n\[1\]
*333 my_design\.DEBUG_SIGS_GTKWAVE\.\@0\$sseg_segment_n\[2\]
*334 my_design\.DEBUG_SIGS_GTKWAVE\.\@0\$sseg_segment_n\[3\]
*335 my_design\.DEBUG_SIGS_GTKWAVE\.\@0\$sseg_segment_n\[4\]
*336 my_design\.DEBUG_SIGS_GTKWAVE\.\@0\$sseg_segment_n\[5\]
*337 my_design\.DEBUG_SIGS_GTKWAVE\.\@0\$sseg_segment_n\[6\]
*338 my_design\.DEBUG_SIGS_GTKWAVE\.\/digit\[0\]\.\/leds\[0\]\.\/\/\@0\$viz_lit
*339 my_design\.DEBUG_SIGS_GTKWAVE\.\/digit\[0\]\.\/leds\[1\]\.\/\/\@0\$viz_lit
*340 my_design\.DEBUG_SIGS_GTKWAVE\.\/digit\[0\]\.\/leds\[2\]\.\/\/\@0\$viz_lit
*341 my_design\.DEBUG_SIGS_GTKWAVE\.\/digit\[0\]\.\/leds\[3\]\.\/\/\@0\$viz_lit
*342 my_design\.DEBUG_SIGS_GTKWAVE\.\/digit\[0\]\.\/leds\[4\]\.\/\/\@0\$viz_lit
*343 my_design\.DEBUG_SIGS_GTKWAVE\.\/digit\[0\]\.\/leds\[5\]\.\/\/\@0\$viz_lit
*344 my_design\.DEBUG_SIGS_GTKWAVE\.\/digit\[0\]\.\/leds\[6\]\.\/\/\@0\$viz_lit
*345 my_design\.DEBUG_SIGS_GTKWAVE\.\/digit\[0\]\.\/leds\[7\]\.\/\/\@0\$viz_lit
*346 my_design\.DEBUG_SIGS_GTKWAVE\.\/fpga_pins\.\/fpga\.P_receiver\.\/\/\/\?\$receiver\@0\$data\[0\]
*347 my_design\.DEBUG_SIGS_GTKWAVE\.\/fpga_pins\.\/fpga\.P_receiver\.\/\/\/\?\$receiver\@0\$data\[1\]
*348 my_design\.DEBUG_SIGS_GTKWAVE\.\/fpga_pins\.\/fpga\.P_receiver\.\/\/\/\?\$receiver\@0\$data\[2\]
*349 my_design\.DEBUG_SIGS_GTKWAVE\.\/fpga_pins\.\/fpga\.P_receiver\.\/\/\/\?\$receiver\@0\$data\[3\]
*350 my_design\.DEBUG_SIGS_GTKWAVE\.\/fpga_pins\.\/fpga\.P_receiver\.\/\/\/\?\$receiver\@0\$dec
*351 my_design\.DEBUG_SIGS_GTKWAVE\.\/fpga_pins\.\/fpga\.P_receiver\.\/\/\/\?\$receiver\@0\$invalid_input
*352 my_design\.DEBUG_SIGS_GTKWAVE\.\/fpga_pins\.\/fpga\.P_receiver\.\/\/\/\?\$receiver\@0\$rec_in_valid
*353 my_design\.DEBUG_SIGS_GTKWAVE\.\/fpga_pins\.\/fpga\.P_receiver\.\/\/\/\?\$receiver\@0\$recv_out\[0\]
*354 my_design\.DEBUG_SIGS_GTKWAVE\.\/fpga_pins\.\/fpga\.P_receiver\.\/\/\/\?\$receiver\@0\$recv_out\[1\]
*355 my_design\.DEBUG_SIGS_GTKWAVE\.\/fpga_pins\.\/fpga\.P_receiver\.\/\/\/\?\$receiver\@0\$recv_out\[2\]
*356 my_design\.DEBUG_SIGS_GTKWAVE\.\/fpga_pins\.\/fpga\.P_receiver\.\/\/\/\?\$receiver\@0\$recv_out\[3\]
*357 my_design\.DEBUG_SIGS_GTKWAVE\.\/fpga_pins\.\/fpga\.P_receiver\.\/\/\/\?\$receiver\@0\$recv_out\[4\]
*358 my_design\.DEBUG_SIGS_GTKWAVE\.\/fpga_pins\.\/fpga\.P_receiver\.\/\/\/\?\$receiver\@0\$recv_out\[5\]
*359 my_design\.DEBUG_SIGS_GTKWAVE\.\/fpga_pins\.\/fpga\.P_receiver\.\/\/\/\?\$receiver\@0\$recv_out\[6\]
*360 my_design\.DEBUG_SIGS_GTKWAVE\.\/fpga_pins\.\/fpga\.P_receiver\.\/\/\/\@0\$receiver
*361 my_design\.DEBUG_SIGS_GTKWAVE\.\/fpga_pins\.\/fpga\.P_sender\.\/\/\/\?\$sender\@0\$an_input
*362 my_design\.DEBUG_SIGS_GTKWAVE\.\/fpga_pins\.\/fpga\.P_sender\.\/\/\/\?\$sender\@0\$counter\[0\]
*363 my_design\.DEBUG_SIGS_GTKWAVE\.\/fpga_pins\.\/fpga\.P_sender\.\/\/\/\?\$sender\@0\$counter\[10\]
*364 my_design\.DEBUG_SIGS_GTKWAVE\.\/fpga_pins\.\/fpga\.P_sender\.\/\/\/\?\$sender\@0\$counter\[11\]
*365 my_design\.DEBUG_SIGS_GTKWAVE\.\/fpga_pins\.\/fpga\.P_sender\.\/\/\/\?\$sender\@0\$counter\[1\]
*366 my_design\.DEBUG_SIGS_GTKWAVE\.\/fpga_pins\.\/fpga\.P_sender\.\/\/\/\?\$sender\@0\$counter\[2\]
*367 my_design\.DEBUG_SIGS_GTKWAVE\.\/fpga_pins\.\/fpga\.P_sender\.\/\/\/\?\$sender\@0\$counter\[3\]
*368 my_design\.DEBUG_SIGS_GTKWAVE\.\/fpga_pins\.\/fpga\.P_sender\.\/\/\/\?\$sender\@0\$counter\[4\]
*369 my_design\.DEBUG_SIGS_GTKWAVE\.\/fpga_pins\.\/fpga\.P_sender\.\/\/\/\?\$sender\@0\$counter\[5\]
*370 my_design\.DEBUG_SIGS_GTKWAVE\.\/fpga_pins\.\/fpga\.P_sender\.\/\/\/\?\$sender\@0\$counter\[6\]
*371 my_design\.DEBUG_SIGS_GTKWAVE\.\/fpga_pins\.\/fpga\.P_sender\.\/\/\/\?\$sender\@0\$counter\[7\]
*372 my_design\.DEBUG_SIGS_GTKWAVE\.\/fpga_pins\.\/fpga\.P_sender\.\/\/\/\?\$sender\@0\$counter\[8\]
*373 my_design\.DEBUG_SIGS_GTKWAVE\.\/fpga_pins\.\/fpga\.P_sender\.\/\/\/\?\$sender\@0\$counter\[9\]
*374 my_design\.DEBUG_SIGS_GTKWAVE\.\/fpga_pins\.\/fpga\.P_sender\.\/\/\/\?\$sender\@0\$do_send
*375 my_design\.DEBUG_SIGS_GTKWAVE\.\/fpga_pins\.\/fpga\.P_sender\.\/\/\/\?\$sender\@0\$in\[0\]
*376 my_design\.DEBUG_SIGS_GTKWAVE\.\/fpga_pins\.\/fpga\.P_sender\.\/\/\/\?\$sender\@0\$in\[1\]
*377 my_design\.DEBUG_SIGS_GTKWAVE\.\/fpga_pins\.\/fpga\.P_sender\.\/\/\/\?\$sender\@0\$in\[2\]
*378 my_design\.DEBUG_SIGS_GTKWAVE\.\/fpga_pins\.\/fpga\.P_sender\.\/\/\/\?\$sender\@0\$in\[3\]
*379 my_design\.DEBUG_SIGS_GTKWAVE\.\/fpga_pins\.\/fpga\.P_sender\.\/\/\/\?\$sender\@0\$in\[4\]
*380 my_design\.DEBUG_SIGS_GTKWAVE\.\/fpga_pins\.\/fpga\.P_sender\.\/\/\/\?\$sender\@0\$in\[5\]
*381 my_design\.DEBUG_SIGS_GTKWAVE\.\/fpga_pins\.\/fpga\.P_sender\.\/\/\/\?\$sender\@0\$in\[6\]
*382 my_design\.DEBUG_SIGS_GTKWAVE\.\/fpga_pins\.\/fpga\.P_sender\.\/\/\/\?\$sender\@0\$send_out\[1\]
*383 my_design\.DEBUG_SIGS_GTKWAVE\.\/fpga_pins\.\/fpga\.P_sender\.\/\/\/\?\$sender\@0\$send_out\[2\]
*384 my_design\.DEBUG_SIGS_GTKWAVE\.\/fpga_pins\.\/fpga\.P_sender\.\/\/\/\?\$sender\@0\$send_out\[3\]
*385 my_design\.DEBUG_SIGS_GTKWAVE\.\/fpga_pins\.\/fpga\.P_sender\.\/\/\/\?\$sender\@0\$send_out\[4\]
*386 my_design\.DEBUG_SIGS_GTKWAVE\.\/fpga_pins\.\/fpga\.P_sender\.\/\/\/\?\$sender\@10\$do_send_out
*387 my_design\.DEBUG_SIGS_GTKWAVE\.\/fpga_pins\.\/fpga\.P_sender\.\/\/\/\@0\$sender
*388 my_design\.DEBUG_SIGS_GTKWAVE\.\/switch\[0\]\.\/\@0\$viz_switch
*389 my_design\.DEBUG_SIGS_GTKWAVE\.\/switch\[1\]\.\/\@0\$viz_switch
*390 my_design\.DEBUG_SIGS_GTKWAVE\.\/switch\[2\]\.\/\@0\$viz_switch
*391 my_design\.DEBUG_SIGS_GTKWAVE\.\/switch\[3\]\.\/\@0\$viz_switch
*392 my_design\.DEBUG_SIGS_GTKWAVE\.\/switch\[4\]\.\/\@0\$viz_switch
*393 my_design\.DEBUG_SIGS_GTKWAVE\.\/switch\[5\]\.\/\@0\$viz_switch
*394 my_design\.DEBUG_SIGS_GTKWAVE\.\/switch\[6\]\.\/\@0\$viz_switch
*395 my_design\.DEBUG_SIGS_GTKWAVE\.\/switch\[7\]\.\/\@0\$viz_switch
*396 my_design\.FpgaPins_Fpga_RECEIVER_dec_a1
*397 my_design\.FpgaPins_Fpga_RECEIVER_recv_out_a1\[0\]
*398 my_design\.FpgaPins_Fpga_RECEIVER_recv_out_a1\[1\]
*399 my_design\.FpgaPins_Fpga_RECEIVER_recv_out_a1\[2\]
*400 my_design\.FpgaPins_Fpga_RECEIVER_recv_out_a1\[3\]
*401 my_design\.FpgaPins_Fpga_RECEIVER_recv_out_a1\[4\]
*402 my_design\.FpgaPins_Fpga_RECEIVER_recv_out_a1\[5\]
*403 my_design\.FpgaPins_Fpga_SENDER_counter_a1\[0\]
*404 my_design\.FpgaPins_Fpga_SENDER_counter_a1\[10\]
*405 my_design\.FpgaPins_Fpga_SENDER_counter_a1\[11\]
*406 my_design\.FpgaPins_Fpga_SENDER_counter_a1\[1\]
*407 my_design\.FpgaPins_Fpga_SENDER_counter_a1\[2\]
*408 my_design\.FpgaPins_Fpga_SENDER_counter_a1\[3\]
*409 my_design\.FpgaPins_Fpga_SENDER_counter_a1\[4\]
*410 my_design\.FpgaPins_Fpga_SENDER_counter_a1\[5\]
*411 my_design\.FpgaPins_Fpga_SENDER_counter_a1\[6\]
*412 my_design\.FpgaPins_Fpga_SENDER_counter_a1\[7\]
*413 my_design\.FpgaPins_Fpga_SENDER_counter_a1\[8\]
*414 my_design\.FpgaPins_Fpga_SENDER_counter_a1\[9\]
*415 my_design\.FpgaPins_Fpga_SENDER_do_send_a1
*416 my_design\.FpgaPins_Fpga_SENDER_do_send_a2
*417 my_design\.FpgaPins_Fpga_SENDER_do_send_a3
*418 my_design\.FpgaPins_Fpga_SENDER_do_send_a4
*419 my_design\.FpgaPins_Fpga_SENDER_do_send_a5
*420 my_design\.FpgaPins_Fpga_SENDER_do_send_a6
*421 my_design\.FpgaPins_Fpga_SENDER_do_send_a7
*422 my_design\.FpgaPins_Fpga_SENDER_do_send_a8
*423 my_design\.FpgaPins_Fpga_SENDER_do_send_a9
*424 net1
*425 net10
*426 net100
*427 net101
*428 net102
*429 net103
*430 net104
*431 net105
*432 net106
*433 net107
*434 net108
*435 net109
*436 net11
*437 net110
*438 net111
*439 net112
*440 net113
*441 net114
*442 net115
*443 net116
*444 net117
*445 net118
*446 net119
*447 net12
*448 net120
*449 net121
*450 net122
*451 net123
*452 net124
*453 net125
*454 net126
*455 net127
*456 net128
*457 net129
*458 net13
*459 net130
*460 net14
*461 net15
*462 net16
*463 net17
*464 net18
*465 net19
*466 net2
*467 net20
*468 net21
*469 net22
*470 net23
*471 net3
*472 net4
*473 net40
*474 net41
*475 net42
*476 net43
*477 net44
*478 net45
*479 net46
*480 net47
*481 net48
*482 net49
*483 net5
*484 net50
*485 net51
*486 net52
*487 net53
*488 net54
*489 net55
*490 net56
*491 net57
*492 net58
*493 net59
*494 net6
*495 net60
*496 net61
*497 net62
*498 net63
*499 net64
*500 net65
*501 net66
*502 net67
*503 net68
*504 net69
*505 net7
*506 net70
*507 net71
*508 net72
*509 net73
*510 net74
*511 net75
*512 net76
*513 net77
*514 net78
*515 net79
*516 net8
*517 net80
*518 net81
*519 net82
*520 net83
*521 net84
*522 net85
*523 net86
*524 net87
*525 net88
*526 net89
*527 net9
*528 net90
*529 net91
*530 net92
*531 net93
*532 net94
*533 net95
*534 net96
*535 net97
*536 net98
*537 net99
*538 FILLER_0_0_109
*539 FILLER_0_0_113
*540 FILLER_0_0_125
*541 FILLER_0_0_137
*542 FILLER_0_0_141
*543 FILLER_0_0_15
*544 FILLER_0_0_153
*545 FILLER_0_0_165
*546 FILLER_0_0_169
*547 FILLER_0_0_181
*548 FILLER_0_0_193
*549 FILLER_0_0_197
*550 FILLER_0_0_209
*551 FILLER_0_0_221
*552 FILLER_0_0_225
*553 FILLER_0_0_237
*554 FILLER_0_0_249
*555 FILLER_0_0_253
*556 FILLER_0_0_265
*557 FILLER_0_0_27
*558 FILLER_0_0_277
*559 FILLER_0_0_281
*560 FILLER_0_0_29
*561 FILLER_0_0_293
*562 FILLER_0_0_3
*563 FILLER_0_0_305
*564 FILLER_0_0_309
*565 FILLER_0_0_321
*566 FILLER_0_0_333
*567 FILLER_0_0_41
*568 FILLER_0_0_53
*569 FILLER_0_0_57
*570 FILLER_0_0_69
*571 FILLER_0_0_81
*572 FILLER_0_0_85
*573 FILLER_0_0_97
*574 FILLER_0_10_109
*575 FILLER_0_10_121
*576 FILLER_0_10_133
*577 FILLER_0_10_139
*578 FILLER_0_10_141
*579 FILLER_0_10_15
*580 FILLER_0_10_153
*581 FILLER_0_10_165
*582 FILLER_0_10_177
*583 FILLER_0_10_189
*584 FILLER_0_10_195
*585 FILLER_0_10_197
*586 FILLER_0_10_209
*587 FILLER_0_10_221
*588 FILLER_0_10_233
*589 FILLER_0_10_245
*590 FILLER_0_10_251
*591 FILLER_0_10_253
*592 FILLER_0_10_265
*593 FILLER_0_10_27
*594 FILLER_0_10_277
*595 FILLER_0_10_289
*596 FILLER_0_10_29
*597 FILLER_0_10_3
*598 FILLER_0_10_301
*599 FILLER_0_10_307
*600 FILLER_0_10_309
*601 FILLER_0_10_321
*602 FILLER_0_10_333
*603 FILLER_0_10_41
*604 FILLER_0_10_53
*605 FILLER_0_10_65
*606 FILLER_0_10_77
*607 FILLER_0_10_83
*608 FILLER_0_10_85
*609 FILLER_0_10_97
*610 FILLER_0_11_105
*611 FILLER_0_11_111
*612 FILLER_0_11_113
*613 FILLER_0_11_125
*614 FILLER_0_11_137
*615 FILLER_0_11_149
*616 FILLER_0_11_15
*617 FILLER_0_11_161
*618 FILLER_0_11_167
*619 FILLER_0_11_169
*620 FILLER_0_11_181
*621 FILLER_0_11_193
*622 FILLER_0_11_205
*623 FILLER_0_11_217
*624 FILLER_0_11_223
*625 FILLER_0_11_225
*626 FILLER_0_11_237
*627 FILLER_0_11_249
*628 FILLER_0_11_261
*629 FILLER_0_11_27
*630 FILLER_0_11_273
*631 FILLER_0_11_279
*632 FILLER_0_11_281
*633 FILLER_0_11_293
*634 FILLER_0_11_3
*635 FILLER_0_11_305
*636 FILLER_0_11_317
*637 FILLER_0_11_329
*638 FILLER_0_11_39
*639 FILLER_0_11_51
*640 FILLER_0_11_55
*641 FILLER_0_11_57
*642 FILLER_0_11_69
*643 FILLER_0_11_81
*644 FILLER_0_11_93
*645 FILLER_0_12_109
*646 FILLER_0_12_121
*647 FILLER_0_12_133
*648 FILLER_0_12_139
*649 FILLER_0_12_141
*650 FILLER_0_12_15
*651 FILLER_0_12_153
*652 FILLER_0_12_165
*653 FILLER_0_12_177
*654 FILLER_0_12_189
*655 FILLER_0_12_195
*656 FILLER_0_12_197
*657 FILLER_0_12_209
*658 FILLER_0_12_221
*659 FILLER_0_12_233
*660 FILLER_0_12_245
*661 FILLER_0_12_251
*662 FILLER_0_12_253
*663 FILLER_0_12_265
*664 FILLER_0_12_27
*665 FILLER_0_12_277
*666 FILLER_0_12_289
*667 FILLER_0_12_29
*668 FILLER_0_12_3
*669 FILLER_0_12_301
*670 FILLER_0_12_307
*671 FILLER_0_12_309
*672 FILLER_0_12_321
*673 FILLER_0_12_333
*674 FILLER_0_12_41
*675 FILLER_0_12_53
*676 FILLER_0_12_65
*677 FILLER_0_12_77
*678 FILLER_0_12_83
*679 FILLER_0_12_85
*680 FILLER_0_12_97
*681 FILLER_0_13_105
*682 FILLER_0_13_111
*683 FILLER_0_13_113
*684 FILLER_0_13_125
*685 FILLER_0_13_137
*686 FILLER_0_13_149
*687 FILLER_0_13_15
*688 FILLER_0_13_161
*689 FILLER_0_13_167
*690 FILLER_0_13_169
*691 FILLER_0_13_181
*692 FILLER_0_13_193
*693 FILLER_0_13_205
*694 FILLER_0_13_217
*695 FILLER_0_13_223
*696 FILLER_0_13_225
*697 FILLER_0_13_237
*698 FILLER_0_13_249
*699 FILLER_0_13_261
*700 FILLER_0_13_27
*701 FILLER_0_13_273
*702 FILLER_0_13_279
*703 FILLER_0_13_281
*704 FILLER_0_13_293
*705 FILLER_0_13_3
*706 FILLER_0_13_305
*707 FILLER_0_13_317
*708 FILLER_0_13_329
*709 FILLER_0_13_39
*710 FILLER_0_13_51
*711 FILLER_0_13_55
*712 FILLER_0_13_57
*713 FILLER_0_13_69
*714 FILLER_0_13_81
*715 FILLER_0_13_93
*716 FILLER_0_14_109
*717 FILLER_0_14_121
*718 FILLER_0_14_133
*719 FILLER_0_14_139
*720 FILLER_0_14_141
*721 FILLER_0_14_15
*722 FILLER_0_14_153
*723 FILLER_0_14_165
*724 FILLER_0_14_177
*725 FILLER_0_14_189
*726 FILLER_0_14_195
*727 FILLER_0_14_197
*728 FILLER_0_14_209
*729 FILLER_0_14_214
*730 FILLER_0_14_226
*731 FILLER_0_14_238
*732 FILLER_0_14_250
*733 FILLER_0_14_253
*734 FILLER_0_14_265
*735 FILLER_0_14_27
*736 FILLER_0_14_277
*737 FILLER_0_14_289
*738 FILLER_0_14_29
*739 FILLER_0_14_3
*740 FILLER_0_14_301
*741 FILLER_0_14_307
*742 FILLER_0_14_309
*743 FILLER_0_14_321
*744 FILLER_0_14_333
*745 FILLER_0_14_41
*746 FILLER_0_14_53
*747 FILLER_0_14_65
*748 FILLER_0_14_77
*749 FILLER_0_14_83
*750 FILLER_0_14_85
*751 FILLER_0_14_97
*752 FILLER_0_15_105
*753 FILLER_0_15_111
*754 FILLER_0_15_113
*755 FILLER_0_15_125
*756 FILLER_0_15_137
*757 FILLER_0_15_149
*758 FILLER_0_15_15
*759 FILLER_0_15_161
*760 FILLER_0_15_167
*761 FILLER_0_15_169
*762 FILLER_0_15_181
*763 FILLER_0_15_193
*764 FILLER_0_15_225
*765 FILLER_0_15_237
*766 FILLER_0_15_27
*767 FILLER_0_15_275
*768 FILLER_0_15_279
*769 FILLER_0_15_281
*770 FILLER_0_15_293
*771 FILLER_0_15_3
*772 FILLER_0_15_305
*773 FILLER_0_15_317
*774 FILLER_0_15_329
*775 FILLER_0_15_39
*776 FILLER_0_15_51
*777 FILLER_0_15_55
*778 FILLER_0_15_57
*779 FILLER_0_15_69
*780 FILLER_0_15_81
*781 FILLER_0_15_93
*782 FILLER_0_16_109
*783 FILLER_0_16_121
*784 FILLER_0_16_133
*785 FILLER_0_16_139
*786 FILLER_0_16_141
*787 FILLER_0_16_15
*788 FILLER_0_16_153
*789 FILLER_0_16_165
*790 FILLER_0_16_177
*791 FILLER_0_16_189
*792 FILLER_0_16_236
*793 FILLER_0_16_250
*794 FILLER_0_16_27
*795 FILLER_0_16_285
*796 FILLER_0_16_29
*797 FILLER_0_16_297
*798 FILLER_0_16_3
*799 FILLER_0_16_305
*800 FILLER_0_16_309
*801 FILLER_0_16_321
*802 FILLER_0_16_333
*803 FILLER_0_16_41
*804 FILLER_0_16_53
*805 FILLER_0_16_65
*806 FILLER_0_16_77
*807 FILLER_0_16_83
*808 FILLER_0_16_85
*809 FILLER_0_16_97
*810 FILLER_0_17_105
*811 FILLER_0_17_111
*812 FILLER_0_17_113
*813 FILLER_0_17_125
*814 FILLER_0_17_137
*815 FILLER_0_17_149
*816 FILLER_0_17_15
*817 FILLER_0_17_161
*818 FILLER_0_17_167
*819 FILLER_0_17_169
*820 FILLER_0_17_181
*821 FILLER_0_17_193
*822 FILLER_0_17_210
*823 FILLER_0_17_237
*824 FILLER_0_17_245
*825 FILLER_0_17_27
*826 FILLER_0_17_278
*827 FILLER_0_17_281
*828 FILLER_0_17_293
*829 FILLER_0_17_3
*830 FILLER_0_17_305
*831 FILLER_0_17_317
*832 FILLER_0_17_329
*833 FILLER_0_17_39
*834 FILLER_0_17_51
*835 FILLER_0_17_55
*836 FILLER_0_17_57
*837 FILLER_0_17_69
*838 FILLER_0_17_81
*839 FILLER_0_17_93
*840 FILLER_0_18_109
*841 FILLER_0_18_121
*842 FILLER_0_18_133
*843 FILLER_0_18_139
*844 FILLER_0_18_141
*845 FILLER_0_18_15
*846 FILLER_0_18_153
*847 FILLER_0_18_165
*848 FILLER_0_18_177
*849 FILLER_0_18_189
*850 FILLER_0_18_195
*851 FILLER_0_18_197
*852 FILLER_0_18_201
*853 FILLER_0_18_206
*854 FILLER_0_18_229
*855 FILLER_0_18_241
*856 FILLER_0_18_245
*857 FILLER_0_18_253
*858 FILLER_0_18_267
*859 FILLER_0_18_27
*860 FILLER_0_18_287
*861 FILLER_0_18_29
*862 FILLER_0_18_299
*863 FILLER_0_18_3
*864 FILLER_0_18_307
*865 FILLER_0_18_309
*866 FILLER_0_18_321
*867 FILLER_0_18_333
*868 FILLER_0_18_41
*869 FILLER_0_18_53
*870 FILLER_0_18_65
*871 FILLER_0_18_77
*872 FILLER_0_18_83
*873 FILLER_0_18_85
*874 FILLER_0_18_97
*875 FILLER_0_19_105
*876 FILLER_0_19_111
*877 FILLER_0_19_113
*878 FILLER_0_19_125
*879 FILLER_0_19_137
*880 FILLER_0_19_149
*881 FILLER_0_19_15
*882 FILLER_0_19_161
*883 FILLER_0_19_167
*884 FILLER_0_19_169
*885 FILLER_0_19_181
*886 FILLER_0_19_193
*887 FILLER_0_19_205
*888 FILLER_0_19_225
*889 FILLER_0_19_237
*890 FILLER_0_19_27
*891 FILLER_0_19_281
*892 FILLER_0_19_293
*893 FILLER_0_19_3
*894 FILLER_0_19_305
*895 FILLER_0_19_317
*896 FILLER_0_19_329
*897 FILLER_0_19_39
*898 FILLER_0_19_51
*899 FILLER_0_19_55
*900 FILLER_0_19_57
*901 FILLER_0_19_69
*902 FILLER_0_19_81
*903 FILLER_0_19_93
*904 FILLER_0_1_105
*905 FILLER_0_1_111
*906 FILLER_0_1_113
*907 FILLER_0_1_125
*908 FILLER_0_1_137
*909 FILLER_0_1_149
*910 FILLER_0_1_15
*911 FILLER_0_1_161
*912 FILLER_0_1_167
*913 FILLER_0_1_169
*914 FILLER_0_1_181
*915 FILLER_0_1_193
*916 FILLER_0_1_205
*917 FILLER_0_1_217
*918 FILLER_0_1_223
*919 FILLER_0_1_225
*920 FILLER_0_1_237
*921 FILLER_0_1_249
*922 FILLER_0_1_261
*923 FILLER_0_1_27
*924 FILLER_0_1_273
*925 FILLER_0_1_279
*926 FILLER_0_1_281
*927 FILLER_0_1_293
*928 FILLER_0_1_3
*929 FILLER_0_1_305
*930 FILLER_0_1_317
*931 FILLER_0_1_329
*932 FILLER_0_1_39
*933 FILLER_0_1_51
*934 FILLER_0_1_55
*935 FILLER_0_1_57
*936 FILLER_0_1_69
*937 FILLER_0_1_81
*938 FILLER_0_1_93
*939 FILLER_0_20_109
*940 FILLER_0_20_121
*941 FILLER_0_20_133
*942 FILLER_0_20_139
*943 FILLER_0_20_141
*944 FILLER_0_20_15
*945 FILLER_0_20_153
*946 FILLER_0_20_161
*947 FILLER_0_20_191
*948 FILLER_0_20_195
*949 FILLER_0_20_221
*950 FILLER_0_20_236
*951 FILLER_0_20_251
*952 FILLER_0_20_260
*953 FILLER_0_20_27
*954 FILLER_0_20_272
*955 FILLER_0_20_284
*956 FILLER_0_20_29
*957 FILLER_0_20_296
*958 FILLER_0_20_3
*959 FILLER_0_20_309
*960 FILLER_0_20_321
*961 FILLER_0_20_333
*962 FILLER_0_20_41
*963 FILLER_0_20_53
*964 FILLER_0_20_75
*965 FILLER_0_20_83
*966 FILLER_0_20_85
*967 FILLER_0_20_97
*968 FILLER_0_21_100
*969 FILLER_0_21_113
*970 FILLER_0_21_125
*971 FILLER_0_21_137
*972 FILLER_0_21_149
*973 FILLER_0_21_15
*974 FILLER_0_21_157
*975 FILLER_0_21_190
*976 FILLER_0_21_222
*977 FILLER_0_21_225
*978 FILLER_0_21_269
*979 FILLER_0_21_27
*980 FILLER_0_21_297
*981 FILLER_0_21_3
*982 FILLER_0_21_309
*983 FILLER_0_21_321
*984 FILLER_0_21_333
*985 FILLER_0_21_39
*986 FILLER_0_21_44
*987 FILLER_0_21_55
*988 FILLER_0_21_57
*989 FILLER_0_21_88
*990 FILLER_0_22_100
*991 FILLER_0_22_112
*992 FILLER_0_22_124
*993 FILLER_0_22_136
*994 FILLER_0_22_141
*995 FILLER_0_22_15
*996 FILLER_0_22_153
*997 FILLER_0_22_165
*998 FILLER_0_22_171
*999 FILLER_0_22_180
*1000 FILLER_0_22_190
*1001 FILLER_0_22_248
*1002 FILLER_0_22_261
*1003 FILLER_0_22_27
*1004 FILLER_0_22_29
*1005 FILLER_0_22_3
*1006 FILLER_0_22_304
*1007 FILLER_0_22_309
*1008 FILLER_0_22_321
*1009 FILLER_0_22_33
*1010 FILLER_0_22_333
*1011 FILLER_0_22_50
*1012 FILLER_0_22_83
*1013 FILLER_0_22_88
*1014 FILLER_0_23_102
*1015 FILLER_0_23_110
*1016 FILLER_0_23_113
*1017 FILLER_0_23_125
*1018 FILLER_0_23_137
*1019 FILLER_0_23_149
*1020 FILLER_0_23_15
*1021 FILLER_0_23_157
*1022 FILLER_0_23_162
*1023 FILLER_0_23_169
*1024 FILLER_0_23_177
*1025 FILLER_0_23_183
*1026 FILLER_0_23_188
*1027 FILLER_0_23_200
*1028 FILLER_0_23_208
*1029 FILLER_0_23_223
*1030 FILLER_0_23_225
*1031 FILLER_0_23_252
*1032 FILLER_0_23_260
*1033 FILLER_0_23_27
*1034 FILLER_0_23_3
*1035 FILLER_0_23_305
*1036 FILLER_0_23_316
*1037 FILLER_0_23_328
*1038 FILLER_0_23_334
*1039 FILLER_0_23_39
*1040 FILLER_0_23_51
*1041 FILLER_0_23_67
*1042 FILLER_0_23_87
*1043 FILLER_0_24_109
*1044 FILLER_0_24_121
*1045 FILLER_0_24_133
*1046 FILLER_0_24_139
*1047 FILLER_0_24_141
*1048 FILLER_0_24_149
*1049 FILLER_0_24_15
*1050 FILLER_0_24_177
*1051 FILLER_0_24_200
*1052 FILLER_0_24_212
*1053 FILLER_0_24_224
*1054 FILLER_0_24_240
*1055 FILLER_0_24_253
*1056 FILLER_0_24_261
*1057 FILLER_0_24_27
*1058 FILLER_0_24_29
*1059 FILLER_0_24_291
*1060 FILLER_0_24_3
*1061 FILLER_0_24_309
*1062 FILLER_0_24_321
*1063 FILLER_0_24_333
*1064 FILLER_0_24_53
*1065 FILLER_0_24_71
*1066 FILLER_0_24_83
*1067 FILLER_0_24_85
*1068 FILLER_0_25_120
*1069 FILLER_0_25_128
*1070 FILLER_0_25_133
*1071 FILLER_0_25_145
*1072 FILLER_0_25_15
*1073 FILLER_0_25_167
*1074 FILLER_0_25_169
*1075 FILLER_0_25_173
*1076 FILLER_0_25_190
*1077 FILLER_0_25_196
*1078 FILLER_0_25_206
*1079 FILLER_0_25_249
*1080 FILLER_0_25_27
*1081 FILLER_0_25_278
*1082 FILLER_0_25_281
*1083 FILLER_0_25_286
*1084 FILLER_0_25_3
*1085 FILLER_0_25_323
*1086 FILLER_0_25_35
*1087 FILLER_0_25_55
*1088 FILLER_0_25_66
*1089 FILLER_0_25_74
*1090 FILLER_0_25_90
*1091 FILLER_0_26_139
*1092 FILLER_0_26_144
*1093 FILLER_0_26_15
*1094 FILLER_0_26_161
*1095 FILLER_0_26_173
*1096 FILLER_0_26_194
*1097 FILLER_0_26_206
*1098 FILLER_0_26_228
*1099 FILLER_0_26_250
*1100 FILLER_0_26_27
*1101 FILLER_0_26_29
*1102 FILLER_0_26_3
*1103 FILLER_0_26_309
*1104 FILLER_0_26_331
*1105 FILLER_0_26_41
*1106 FILLER_0_26_77
*1107 FILLER_0_27_106
*1108 FILLER_0_27_113
*1109 FILLER_0_27_133
*1110 FILLER_0_27_15
*1111 FILLER_0_27_167
*1112 FILLER_0_27_181
*1113 FILLER_0_27_207
*1114 FILLER_0_27_228
*1115 FILLER_0_27_234
*1116 FILLER_0_27_250
*1117 FILLER_0_27_258
*1118 FILLER_0_27_27
*1119 FILLER_0_27_277
*1120 FILLER_0_27_287
*1121 FILLER_0_27_291
*1122 FILLER_0_27_3
*1123 FILLER_0_27_329
*1124 FILLER_0_27_39
*1125 FILLER_0_27_43
*1126 FILLER_0_28_109
*1127 FILLER_0_28_117
*1128 FILLER_0_28_137
*1129 FILLER_0_28_141
*1130 FILLER_0_28_15
*1131 FILLER_0_28_154
*1132 FILLER_0_28_166
*1133 FILLER_0_28_192
*1134 FILLER_0_28_202
*1135 FILLER_0_28_214
*1136 FILLER_0_28_246
*1137 FILLER_0_28_253
*1138 FILLER_0_28_261
*1139 FILLER_0_28_268
*1140 FILLER_0_28_27
*1141 FILLER_0_28_286
*1142 FILLER_0_28_29
*1143 FILLER_0_28_298
*1144 FILLER_0_28_3
*1145 FILLER_0_28_320
*1146 FILLER_0_28_332
*1147 FILLER_0_28_41
*1148 FILLER_0_28_82
*1149 FILLER_0_29_106
*1150 FILLER_0_29_113
*1151 FILLER_0_29_117
*1152 FILLER_0_29_15
*1153 FILLER_0_29_157
*1154 FILLER_0_29_194
*1155 FILLER_0_29_206
*1156 FILLER_0_29_211
*1157 FILLER_0_29_221
*1158 FILLER_0_29_225
*1159 FILLER_0_29_241
*1160 FILLER_0_29_253
*1161 FILLER_0_29_265
*1162 FILLER_0_29_27
*1163 FILLER_0_29_278
*1164 FILLER_0_29_290
*1165 FILLER_0_29_294
*1166 FILLER_0_29_3
*1167 FILLER_0_29_39
*1168 FILLER_0_29_47
*1169 FILLER_0_29_63
*1170 FILLER_0_29_72
*1171 FILLER_0_29_90
*1172 FILLER_0_29_97
*1173 FILLER_0_2_109
*1174 FILLER_0_2_121
*1175 FILLER_0_2_133
*1176 FILLER_0_2_139
*1177 FILLER_0_2_141
*1178 FILLER_0_2_15
*1179 FILLER_0_2_153
*1180 FILLER_0_2_165
*1181 FILLER_0_2_177
*1182 FILLER_0_2_189
*1183 FILLER_0_2_195
*1184 FILLER_0_2_197
*1185 FILLER_0_2_209
*1186 FILLER_0_2_221
*1187 FILLER_0_2_233
*1188 FILLER_0_2_245
*1189 FILLER_0_2_251
*1190 FILLER_0_2_253
*1191 FILLER_0_2_265
*1192 FILLER_0_2_27
*1193 FILLER_0_2_277
*1194 FILLER_0_2_289
*1195 FILLER_0_2_29
*1196 FILLER_0_2_3
*1197 FILLER_0_2_301
*1198 FILLER_0_2_307
*1199 FILLER_0_2_309
*1200 FILLER_0_2_321
*1201 FILLER_0_2_333
*1202 FILLER_0_2_41
*1203 FILLER_0_2_53
*1204 FILLER_0_2_65
*1205 FILLER_0_2_77
*1206 FILLER_0_2_83
*1207 FILLER_0_2_85
*1208 FILLER_0_2_97
*1209 FILLER_0_30_101
*1210 FILLER_0_30_107
*1211 FILLER_0_30_111
*1212 FILLER_0_30_139
*1213 FILLER_0_30_141
*1214 FILLER_0_30_15
*1215 FILLER_0_30_153
*1216 FILLER_0_30_165
*1217 FILLER_0_30_187
*1218 FILLER_0_30_197
*1219 FILLER_0_30_202
*1220 FILLER_0_30_219
*1221 FILLER_0_30_251
*1222 FILLER_0_30_259
*1223 FILLER_0_30_27
*1224 FILLER_0_30_29
*1225 FILLER_0_30_295
*1226 FILLER_0_30_3
*1227 FILLER_0_30_325
*1228 FILLER_0_30_41
*1229 FILLER_0_30_62
*1230 FILLER_0_30_74
*1231 FILLER_0_30_82
*1232 FILLER_0_30_85
*1233 FILLER_0_31_107
*1234 FILLER_0_31_15
*1235 FILLER_0_31_150
*1236 FILLER_0_31_162
*1237 FILLER_0_31_185
*1238 FILLER_0_31_193
*1239 FILLER_0_31_210
*1240 FILLER_0_31_219
*1241 FILLER_0_31_223
*1242 FILLER_0_31_236
*1243 FILLER_0_31_254
*1244 FILLER_0_31_27
*1245 FILLER_0_31_3
*1246 FILLER_0_31_39
*1247 FILLER_0_31_73
*1248 FILLER_0_31_85
*1249 FILLER_0_32_138
*1250 FILLER_0_32_15
*1251 FILLER_0_32_170
*1252 FILLER_0_32_182
*1253 FILLER_0_32_194
*1254 FILLER_0_32_244
*1255 FILLER_0_32_264
*1256 FILLER_0_32_27
*1257 FILLER_0_32_29
*1258 FILLER_0_32_3
*1259 FILLER_0_32_306
*1260 FILLER_0_32_332
*1261 FILLER_0_32_41
*1262 FILLER_0_32_49
*1263 FILLER_0_32_66
*1264 FILLER_0_32_78
*1265 FILLER_0_32_85
*1266 FILLER_0_32_93
*1267 FILLER_0_33_110
*1268 FILLER_0_33_144
*1269 FILLER_0_33_15
*1270 FILLER_0_33_161
*1271 FILLER_0_33_167
*1272 FILLER_0_33_169
*1273 FILLER_0_33_181
*1274 FILLER_0_33_193
*1275 FILLER_0_33_205
*1276 FILLER_0_33_222
*1277 FILLER_0_33_225
*1278 FILLER_0_33_229
*1279 FILLER_0_33_246
*1280 FILLER_0_33_258
*1281 FILLER_0_33_27
*1282 FILLER_0_33_278
*1283 FILLER_0_33_295
*1284 FILLER_0_33_3
*1285 FILLER_0_33_320
*1286 FILLER_0_33_326
*1287 FILLER_0_33_39
*1288 FILLER_0_33_51
*1289 FILLER_0_33_55
*1290 FILLER_0_33_81
*1291 FILLER_0_33_87
*1292 FILLER_0_34_100
*1293 FILLER_0_34_114
*1294 FILLER_0_34_127
*1295 FILLER_0_34_136
*1296 FILLER_0_34_15
*1297 FILLER_0_34_155
*1298 FILLER_0_34_165
*1299 FILLER_0_34_178
*1300 FILLER_0_34_249
*1301 FILLER_0_34_253
*1302 FILLER_0_34_27
*1303 FILLER_0_34_289
*1304 FILLER_0_34_29
*1305 FILLER_0_34_3
*1306 FILLER_0_34_309
*1307 FILLER_0_34_331
*1308 FILLER_0_34_41
*1309 FILLER_0_34_77
*1310 FILLER_0_34_83
*1311 FILLER_0_34_85
*1312 FILLER_0_34_93
*1313 FILLER_0_35_102