*SPEF "ieee 1481-1999"
*DESIGN "tt_um_fp_mac"
*DATE "07:23:37 Thursday May 23, 2024"
*VENDOR "The OpenROAD Project"
*PROGRAM "OpenROAD"
*VERSION "da0053d7b0014ab9c87ea148875ff6c2a0f9b658"
*DESIGN_FLOW "NAME_SCOPE LOCAL" "PIN_CAP NONE"
*DIVIDER /
*DELIMITER :
*BUS_DELIMITER []
*T_UNIT 1 NS
*C_UNIT 1 PF
*R_UNIT 1 OHM
*L_UNIT 1 HENRY

*NAME_MAP
*3 clk
*4 ena
*5 rst_n
*6 ui_in[0]
*7 ui_in[1]
*8 ui_in[2]
*9 ui_in[3]
*10 ui_in[4]
*11 ui_in[5]
*12 ui_in[6]
*13 ui_in[7]
*14 uio_in[0]
*15 uio_in[1]
*16 uio_in[2]
*17 uio_in[3]
*18 uio_in[4]
*19 uio_in[5]
*20 uio_in[6]
*21 uio_in[7]
*22 net20
*23 net21
*24 net22
*25 net23
*26 net24
*27 net25
*28 net26
*29 net27
*30 net28
*31 net29
*32 net30
*33 net31
*34 net32
*35 net33
*36 net34
*37 net35
*38 uo_out[0]
*39 uo_out[1]
*40 uo_out[2]
*41 uo_out[3]
*42 uo_out[4]
*43 uo_out[5]
*44 uo_out[6]
*45 uo_out[7]
*46 _000_
*47 _001_
*48 _002_
*49 _003_
*50 _004_
*51 _005_
*52 _006_
*53 _007_
*54 _008_
*55 _009_
*56 _010_
*57 _011_
*58 _012_
*59 _013_
*60 _014_
*61 _015_
*62 _016_
*63 _017_
*64 _018_
*65 _019_
*66 _020_
*67 _021_
*68 _022_
*69 _023_
*70 _024_
*71 _025_
*72 _026_
*73 _027_
*74 _028_
*75 _029_
*76 _030_
*77 _031_
*78 _032_
*79 _033_
*80 _034_
*81 _035_
*82 _036_
*83 _037_
*84 _038_
*85 _039_
*86 _040_
*87 _041_
*88 _042_
*89 _043_
*90 _044_
*91 _045_
*92 _046_
*93 _047_
*94 _048_
*95 _049_
*96 _050_
*97 _051_
*98 _052_
*99 _053_
*100 _054_
*101 _055_
*102 _056_
*103 _057_
*104 _058_
*105 _059_
*106 _060_
*107 _061_
*108 _062_
*109 _063_
*110 _064_
*111 _065_
*112 _066_
*113 _067_
*114 _068_
*115 _069_
*116 _070_
*117 _071_
*118 _072_
*119 _073_
*120 _074_
*121 _075_
*122 _076_
*123 _077_
*124 _078_
*125 _079_
*126 _080_
*127 _081_
*128 _082_
*129 _083_
*130 _084_
*131 _085_
*132 _086_
*133 _087_
*134 _088_
*135 _089_
*136 _090_
*137 _091_
*138 _092_
*139 _093_
*140 _094_
*141 _095_
*142 _096_
*143 _097_
*144 _098_
*145 _099_
*146 _100_
*147 _101_
*148 _102_
*149 _103_
*150 _104_
*151 _105_
*152 _106_
*153 _107_
*154 _108_
*155 _109_
*156 _110_
*157 _111_
*158 _112_
*159 _113_
*160 _114_
*161 _115_
*162 _116_
*163 _117_
*164 _118_
*165 _119_
*166 _120_
*167 _121_
*168 _122_
*169 _123_
*170 _124_
*171 _125_
*172 _126_
*173 _127_
*174 _128_
*175 _129_
*176 _130_
*177 _131_
*178 _132_
*179 _133_
*180 _134_
*181 _135_
*182 _136_
*183 _137_
*184 _138_
*185 _139_
*186 _140_
*187 _141_
*188 _142_
*189 _143_
*190 _144_
*191 _145_
*192 _146_
*193 _147_
*194 _148_
*195 _149_
*196 _150_
*197 _151_
*198 _152_
*199 _153_
*200 _154_
*201 _155_
*202 _156_
*203 _157_
*204 _158_
*205 _159_
*206 _160_
*207 _161_
*208 _162_
*209 _163_
*210 _164_
*211 _165_
*212 _166_
*213 _167_
*214 _168_
*215 _169_
*216 _170_
*217 _171_
*218 _172_
*219 _173_
*220 _174_
*221 _175_
*222 _176_
*223 _177_
*224 _178_
*225 _179_
*226 _180_
*227 _181_
*228 _182_
*229 _183_
*230 _184_
*231 _185_
*232 _186_
*233 _187_
*234 _188_
*235 _189_
*236 _190_
*237 _191_
*238 _192_
*239 _193_
*240 _194_
*241 _195_
*242 _196_
*243 _197_
*244 _198_
*245 _199_
*246 _200_
*247 _201_
*248 _202_
*249 _203_
*250 _204_
*251 _205_
*252 _206_
*253 _207_
*254 _208_
*255 _209_
*256 _210_
*257 _211_
*258 _212_
*259 _213_
*260 _214_
*261 _215_
*262 _216_
*263 _217_
*264 _218_
*265 _219_
*266 _220_
*267 _221_
*268 _222_
*269 _223_
*270 _224_
*271 _225_
*272 _226_
*273 _227_
*274 _228_
*275 _229_
*276 _230_
*277 _231_
*278 _232_
*279 _233_
*280 _234_
*281 _235_
*282 _236_
*283 _237_
*284 _238_
*285 _239_
*286 _240_
*287 _241_
*288 _242_
*289 _243_
*290 _244_
*291 _245_
*292 _246_
*293 _247_
*294 _248_
*295 _249_
*296 _250_
*297 _251_
*298 _252_
*299 _253_
*300 _254_
*301 _255_
*302 _256_
*303 _257_
*304 _258_
*305 _259_
*306 _260_
*307 _261_
*308 _262_
*309 _263_
*310 _264_
*311 _265_
*312 _266_
*313 _267_
*314 _268_
*315 _269_
*316 _270_
*317 _271_
*318 _272_
*319 _273_
*320 _274_
*321 _275_
*322 _276_
*323 _277_
*324 _278_
*325 _279_
*326 _280_
*327 _281_
*328 _282_
*329 _283_
*330 _284_
*331 _285_
*332 _286_
*333 _287_
*334 _288_
*335 _289_
*336 _290_
*337 _291_
*338 _292_
*339 _293_
*340 _294_
*341 _295_
*342 _296_
*343 _297_
*344 _298_
*345 _299_
*346 _300_
*347 _301_
*348 _302_
*349 _303_
*350 _304_
*351 _305_
*352 _306_
*353 _307_
*354 _308_
*355 _309_
*356 _310_
*357 _311_
*358 _312_
*359 _313_
*360 _314_
*361 _315_
*362 _316_
*363 _317_
*364 _318_
*365 _319_
*366 _320_
*367 _321_
*368 _322_
*369 _323_
*370 _324_
*371 _325_
*372 _326_
*373 _327_
*374 _328_
*375 _329_
*376 _330_
*377 _331_
*378 _332_
*379 _333_
*380 _334_
*381 _335_
*382 _336_
*383 _337_
*384 _338_
*385 _339_
*386 _340_
*387 _341_
*388 _342_
*389 _343_
*390 _344_
*391 _345_
*392 _346_
*393 _347_
*394 _348_
*395 _349_
*396 _350_
*397 _351_
*398 _352_
*399 _353_
*400 _354_
*401 _355_
*402 _356_
*403 _357_
*404 _358_
*405 _359_
*406 _360_
*407 _361_
*408 adder\.signB
*409 clknet_0_clk
*410 clknet_1_0__leaf_clk
*411 clknet_1_1__leaf_clk
*412 count\[0\]
*413 count\[1\]
*414 net1
*415 net10
*416 net11
*417 net12
*418 net13
*419 net14
*420 net15
*421 net16
*422 net17
*423 net18
*424 net19
*425 net2
*426 net3
*427 net4
*428 net5
*429 net6
*430 net7
*431 net8
*432 net9
*433 FILLER_0_0_109
*434 FILLER_0_0_113
*435 FILLER_0_0_125
*436 FILLER_0_0_137
*437 FILLER_0_0_141
*438 FILLER_0_0_15
*439 FILLER_0_0_153
*440 FILLER_0_0_165
*441 FILLER_0_0_169
*442 FILLER_0_0_181
*443 FILLER_0_0_193
*444 FILLER_0_0_197
*445 FILLER_0_0_209
*446 FILLER_0_0_221
*447 FILLER_0_0_225
*448 FILLER_0_0_237
*449 FILLER_0_0_249
*450 FILLER_0_0_253
*451 FILLER_0_0_265
*452 FILLER_0_0_27
*453 FILLER_0_0_277
*454 FILLER_0_0_281
*455 FILLER_0_0_29
*456 FILLER_0_0_293
*457 FILLER_0_0_3
*458 FILLER_0_0_305
*459 FILLER_0_0_309
*460 FILLER_0_0_321
*461 FILLER_0_0_333
*462 FILLER_0_0_41
*463 FILLER_0_0_53
*464 FILLER_0_0_57
*465 FILLER_0_0_69
*466 FILLER_0_0_81
*467 FILLER_0_0_85
*468 FILLER_0_0_97
*469 FILLER_0_10_109
*470 FILLER_0_10_121
*471 FILLER_0_10_133
*472 FILLER_0_10_139
*473 FILLER_0_10_141
*474 FILLER_0_10_15
*475 FILLER_0_10_153
*476 FILLER_0_10_165
*477 FILLER_0_10_177
*478 FILLER_0_10_189
*479 FILLER_0_10_195
*480 FILLER_0_10_197
*481 FILLER_0_10_209
*482 FILLER_0_10_221
*483 FILLER_0_10_233
*484 FILLER_0_10_245
*485 FILLER_0_10_251
*486 FILLER_0_10_253
*487 FILLER_0_10_265
*488 FILLER_0_10_27
*489 FILLER_0_10_277
*490 FILLER_0_10_289
*491 FILLER_0_10_29
*492 FILLER_0_10_3
*493 FILLER_0_10_301
*494 FILLER_0_10_307
*495 FILLER_0_10_309
*496 FILLER_0_10_321
*497 FILLER_0_10_333
*498 FILLER_0_10_41
*499 FILLER_0_10_53
*500 FILLER_0_10_65
*501 FILLER_0_10_77
*502 FILLER_0_10_83
*503 FILLER_0_10_85
*504 FILLER_0_10_97
*505 FILLER_0_11_105
*506 FILLER_0_11_111
*507 FILLER_0_11_113
*508 FILLER_0_11_125
*509 FILLER_0_11_137
*510 FILLER_0_11_149
*511 FILLER_0_11_15
*512 FILLER_0_11_161
*513 FILLER_0_11_167
*514 FILLER_0_11_169
*515 FILLER_0_11_181
*516 FILLER_0_11_193
*517 FILLER_0_11_205
*518 FILLER_0_11_217
*519 FILLER_0_11_223
*520 FILLER_0_11_225
*521 FILLER_0_11_237
*522 FILLER_0_11_249
*523 FILLER_0_11_261
*524 FILLER_0_11_27
*525 FILLER_0_11_273
*526 FILLER_0_11_279
*527 FILLER_0_11_281
*528 FILLER_0_11_293
*529 FILLER_0_11_3
*530 FILLER_0_11_305
*531 FILLER_0_11_317
*532 FILLER_0_11_329
*533 FILLER_0_11_39
*534 FILLER_0_11_51
*535 FILLER_0_11_55
*536 FILLER_0_11_57
*537 FILLER_0_11_69
*538 FILLER_0_11_81
*539 FILLER_0_11_93
*540 FILLER_0_12_109
*541 FILLER_0_12_121
*542 FILLER_0_12_133
*543 FILLER_0_12_139
*544 FILLER_0_12_141
*545 FILLER_0_12_15
*546 FILLER_0_12_153
*547 FILLER_0_12_165
*548 FILLER_0_12_177
*549 FILLER_0_12_189
*550 FILLER_0_12_195
*551 FILLER_0_12_197
*552 FILLER_0_12_209
*553 FILLER_0_12_221
*554 FILLER_0_12_233
*555 FILLER_0_12_245
*556 FILLER_0_12_251
*557 FILLER_0_12_253
*558 FILLER_0_12_265
*559 FILLER_0_12_27
*560 FILLER_0_12_277
*561 FILLER_0_12_289
*562 FILLER_0_12_29
*563 FILLER_0_12_3
*564 FILLER_0_12_301
*565 FILLER_0_12_307
*566 FILLER_0_12_309
*567 FILLER_0_12_321
*568 FILLER_0_12_333
*569 FILLER_0_12_41
*570 FILLER_0_12_53
*571 FILLER_0_12_65
*572 FILLER_0_12_77
*573 FILLER_0_12_83
*574 FILLER_0_12_85
*575 FILLER_0_12_97
*576 FILLER_0_13_105
*577 FILLER_0_13_111
*578 FILLER_0_13_113
*579 FILLER_0_13_125
*580 FILLER_0_13_137
*581 FILLER_0_13_149
*582 FILLER_0_13_15
*583 FILLER_0_13_161
*584 FILLER_0_13_167
*585 FILLER_0_13_169
*586 FILLER_0_13_181
*587 FILLER_0_13_193
*588 FILLER_0_13_205
*589 FILLER_0_13_217
*590 FILLER_0_13_223
*591 FILLER_0_13_225
*592 FILLER_0_13_237
*593 FILLER_0_13_249
*594 FILLER_0_13_261
*595 FILLER_0_13_27
*596 FILLER_0_13_273
*597 FILLER_0_13_279
*598 FILLER_0_13_281
*599 FILLER_0_13_293
*600 FILLER_0_13_3
*601 FILLER_0_13_305
*602 FILLER_0_13_317
*603 FILLER_0_13_329
*604 FILLER_0_13_39
*605 FILLER_0_13_51
*606 FILLER_0_13_55
*607 FILLER_0_13_57
*608 FILLER_0_13_69
*609 FILLER_0_13_81
*610 FILLER_0_13_93
*611 FILLER_0_14_109
*612 FILLER_0_14_121
*613 FILLER_0_14_133
*614 FILLER_0_14_139
*615 FILLER_0_14_141
*616 FILLER_0_14_15
*617 FILLER_0_14_153
*618 FILLER_0_14_165
*619 FILLER_0_14_177
*620 FILLER_0_14_189
*621 FILLER_0_14_195
*622 FILLER_0_14_197
*623 FILLER_0_14_209
*624 FILLER_0_14_221
*625 FILLER_0_14_233
*626 FILLER_0_14_245
*627 FILLER_0_14_251
*628 FILLER_0_14_253
*629 FILLER_0_14_265
*630 FILLER_0_14_27
*631 FILLER_0_14_277
*632 FILLER_0_14_289
*633 FILLER_0_14_29
*634 FILLER_0_14_3
*635 FILLER_0_14_301
*636 FILLER_0_14_307
*637 FILLER_0_14_309
*638 FILLER_0_14_321
*639 FILLER_0_14_333
*640 FILLER_0_14_41
*641 FILLER_0_14_53
*642 FILLER_0_14_65
*643 FILLER_0_14_77
*644 FILLER_0_14_83
*645 FILLER_0_14_85
*646 FILLER_0_14_97
*647 FILLER_0_15_105
*648 FILLER_0_15_111
*649 FILLER_0_15_113
*650 FILLER_0_15_125
*651 FILLER_0_15_137
*652 FILLER_0_15_149
*653 FILLER_0_15_15
*654 FILLER_0_15_161
*655 FILLER_0_15_167
*656 FILLER_0_15_169
*657 FILLER_0_15_181
*658 FILLER_0_15_193
*659 FILLER_0_15_205
*660 FILLER_0_15_217
*661 FILLER_0_15_223
*662 FILLER_0_15_225
*663 FILLER_0_15_237
*664 FILLER_0_15_249
*665 FILLER_0_15_261
*666 FILLER_0_15_27
*667 FILLER_0_15_273
*668 FILLER_0_15_279
*669 FILLER_0_15_281
*670 FILLER_0_15_293
*671 FILLER_0_15_3
*672 FILLER_0_15_305
*673 FILLER_0_15_317
*674 FILLER_0_15_329
*675 FILLER_0_15_39
*676 FILLER_0_15_51
*677 FILLER_0_15_55
*678 FILLER_0_15_57
*679 FILLER_0_15_69
*680 FILLER_0_15_81
*681 FILLER_0_15_93
*682 FILLER_0_16_109
*683 FILLER_0_16_121
*684 FILLER_0_16_133
*685 FILLER_0_16_139
*686 FILLER_0_16_141
*687 FILLER_0_16_15
*688 FILLER_0_16_153
*689 FILLER_0_16_165
*690 FILLER_0_16_177
*691 FILLER_0_16_189
*692 FILLER_0_16_195
*693 FILLER_0_16_197
*694 FILLER_0_16_209
*695 FILLER_0_16_221
*696 FILLER_0_16_233
*697 FILLER_0_16_245
*698 FILLER_0_16_251
*699 FILLER_0_16_253
*700 FILLER_0_16_265
*701 FILLER_0_16_27
*702 FILLER_0_16_277
*703 FILLER_0_16_289
*704 FILLER_0_16_29
*705 FILLER_0_16_3
*706 FILLER_0_16_301
*707 FILLER_0_16_307
*708 FILLER_0_16_309
*709 FILLER_0_16_321
*710 FILLER_0_16_333
*711 FILLER_0_16_41
*712 FILLER_0_16_53
*713 FILLER_0_16_65
*714 FILLER_0_16_77
*715 FILLER_0_16_83
*716 FILLER_0_16_85
*717 FILLER_0_16_97
*718 FILLER_0_17_105
*719 FILLER_0_17_111
*720 FILLER_0_17_113
*721 FILLER_0_17_125
*722 FILLER_0_17_137
*723 FILLER_0_17_149
*724 FILLER_0_17_15
*725 FILLER_0_17_161
*726 FILLER_0_17_167
*727 FILLER_0_17_169
*728 FILLER_0_17_181
*729 FILLER_0_17_193
*730 FILLER_0_17_205
*731 FILLER_0_17_217
*732 FILLER_0_17_223
*733 FILLER_0_17_225
*734 FILLER_0_17_237
*735 FILLER_0_17_249
*736 FILLER_0_17_261
*737 FILLER_0_17_27
*738 FILLER_0_17_273
*739 FILLER_0_17_279
*740 FILLER_0_17_281
*741 FILLER_0_17_293
*742 FILLER_0_17_3
*743 FILLER_0_17_305
*744 FILLER_0_17_317
*745 FILLER_0_17_329
*746 FILLER_0_17_39
*747 FILLER_0_17_51
*748 FILLER_0_17_55
*749 FILLER_0_17_57
*750 FILLER_0_17_69
*751 FILLER_0_17_81
*752 FILLER_0_17_93
*753 FILLER_0_18_109
*754 FILLER_0_18_121
*755 FILLER_0_18_133
*756 FILLER_0_18_139
*757 FILLER_0_18_141
*758 FILLER_0_18_15
*759 FILLER_0_18_153
*760 FILLER_0_18_165
*761 FILLER_0_18_177
*762 FILLER_0_18_189
*763 FILLER_0_18_195
*764 FILLER_0_18_197
*765 FILLER_0_18_209
*766 FILLER_0_18_221
*767 FILLER_0_18_233
*768 FILLER_0_18_245
*769 FILLER_0_18_251
*770 FILLER_0_18_253
*771 FILLER_0_18_265
*772 FILLER_0_18_27
*773 FILLER_0_18_277
*774 FILLER_0_18_289
*775 FILLER_0_18_29
*776 FILLER_0_18_3
*777 FILLER_0_18_301
*778 FILLER_0_18_307
*779 FILLER_0_18_309
*780 FILLER_0_18_321
*781 FILLER_0_18_333
*782 FILLER_0_18_41
*783 FILLER_0_18_53
*784 FILLER_0_18_65
*785 FILLER_0_18_77
*786 FILLER_0_18_83
*787 FILLER_0_18_85
*788 FILLER_0_18_97
*789 FILLER_0_19_105
*790 FILLER_0_19_111
*791 FILLER_0_19_113
*792 FILLER_0_19_125
*793 FILLER_0_19_137
*794 FILLER_0_19_149
*795 FILLER_0_19_15
*796 FILLER_0_19_161
*797 FILLER_0_19_167
*798 FILLER_0_19_169
*799 FILLER_0_19_181
*800 FILLER_0_19_193
*801 FILLER_0_19_205
*802 FILLER_0_19_217
*803 FILLER_0_19_223
*804 FILLER_0_19_225
*805 FILLER_0_19_237
*806 FILLER_0_19_249
*807 FILLER_0_19_261
*808 FILLER_0_19_27
*809 FILLER_0_19_273
*810 FILLER_0_19_279
*811 FILLER_0_19_281
*812 FILLER_0_19_293
*813 FILLER_0_19_3
*814 FILLER_0_19_305
*815 FILLER_0_19_317
*816 FILLER_0_19_329
*817 FILLER_0_19_39
*818 FILLER_0_19_51
*819 FILLER_0_19_55
*820 FILLER_0_19_57
*821 FILLER_0_19_69
*822 FILLER_0_19_81
*823 FILLER_0_19_93
*824 FILLER_0_1_105
*825 FILLER_0_1_111
*826 FILLER_0_1_113
*827 FILLER_0_1_125
*828 FILLER_0_1_137
*829 FILLER_0_1_149
*830 FILLER_0_1_15
*831 FILLER_0_1_161
*832 FILLER_0_1_167
*833 FILLER_0_1_169
*834 FILLER_0_1_181
*835 FILLER_0_1_193
*836 FILLER_0_1_205
*837 FILLER_0_1_217
*838 FILLER_0_1_223
*839 FILLER_0_1_225
*840 FILLER_0_1_237
*841 FILLER_0_1_249
*842 FILLER_0_1_261
*843 FILLER_0_1_27
*844 FILLER_0_1_273
*845 FILLER_0_1_279
*846 FILLER_0_1_281
*847 FILLER_0_1_293
*848 FILLER_0_1_3
*849 FILLER_0_1_305
*850 FILLER_0_1_317
*851 FILLER_0_1_329
*852 FILLER_0_1_39
*853 FILLER_0_1_51
*854 FILLER_0_1_55
*855 FILLER_0_1_57
*856 FILLER_0_1_69
*857 FILLER_0_1_81
*858 FILLER_0_1_93
*859 FILLER_0_20_106
*860 FILLER_0_20_118
*861 FILLER_0_20_122
*862 FILLER_0_20_126
*863 FILLER_0_20_138
*864 FILLER_0_20_141
*865 FILLER_0_20_149
*866 FILLER_0_20_15
*867 FILLER_0_20_166
*868 FILLER_0_20_175
*869 FILLER_0_20_187
*870 FILLER_0_20_195
*871 FILLER_0_20_197
*872 FILLER_0_20_209
*873 FILLER_0_20_221
*874 FILLER_0_20_233
*875 FILLER_0_20_245
*876 FILLER_0_20_251
*877 FILLER_0_20_253
*878 FILLER_0_20_265
*879 FILLER_0_20_27
*880 FILLER_0_20_277
*881 FILLER_0_20_289
*882 FILLER_0_20_29
*883 FILLER_0_20_3
*884 FILLER_0_20_301
*885 FILLER_0_20_307
*886 FILLER_0_20_309
*887 FILLER_0_20_321
*888 FILLER_0_20_333
*889 FILLER_0_20_41
*890 FILLER_0_20_53
*891 FILLER_0_20_65
*892 FILLER_0_20_77
*893 FILLER_0_20_83
*894 FILLER_0_20_85
*895 FILLER_0_20_91
*896 FILLER_0_21_106
*897 FILLER_0_21_113
*898 FILLER_0_21_134
*899 FILLER_0_21_15
*900 FILLER_0_21_153
*901 FILLER_0_21_165
*902 FILLER_0_21_169
*903 FILLER_0_21_175
*904 FILLER_0_21_183
*905 FILLER_0_21_189
*906 FILLER_0_21_198
*907 FILLER_0_21_210
*908 FILLER_0_21_222
*909 FILLER_0_21_225
*910 FILLER_0_21_237
*911 FILLER_0_21_249
*912 FILLER_0_21_261
*913 FILLER_0_21_27
*914 FILLER_0_21_273
*915 FILLER_0_21_279
*916 FILLER_0_21_281
*917 FILLER_0_21_293
*918 FILLER_0_21_3
*919 FILLER_0_21_305
*920 FILLER_0_21_317
*921 FILLER_0_21_329
*922 FILLER_0_21_39
*923 FILLER_0_21_51
*924 FILLER_0_21_55
*925 FILLER_0_21_57
*926 FILLER_0_21_69
*927 FILLER_0_21_77
*928 FILLER_0_21_94
*929 FILLER_0_22_112
*930 FILLER_0_22_118
*931 FILLER_0_22_122
*932 FILLER_0_22_134
*933 FILLER_0_22_148
*934 FILLER_0_22_15
*935 FILLER_0_22_167
*936 FILLER_0_22_178
*937 FILLER_0_22_190
*938 FILLER_0_22_204
*939 FILLER_0_22_216
*940 FILLER_0_22_228
*941 FILLER_0_22_240
*942 FILLER_0_22_253
*943 FILLER_0_22_265
*944 FILLER_0_22_27
*945 FILLER_0_22_277
*946 FILLER_0_22_289
*947 FILLER_0_22_29
*948 FILLER_0_22_3
*949 FILLER_0_22_301
*950 FILLER_0_22_307
*951 FILLER_0_22_309
*952 FILLER_0_22_321
*953 FILLER_0_22_333
*954 FILLER_0_22_41
*955 FILLER_0_22_53
*956 FILLER_0_22_59
*957 FILLER_0_22_67
*958 FILLER_0_22_78
*959 FILLER_0_22_85
*960 FILLER_0_22_92
*961 FILLER_0_22_98
*962 FILLER_0_23_109
*963 FILLER_0_23_113
*964 FILLER_0_23_117
*965 FILLER_0_23_124
*966 FILLER_0_23_132
*967 FILLER_0_23_141
*968 FILLER_0_23_15
*969 FILLER_0_23_153
*970 FILLER_0_23_162
*971 FILLER_0_23_169
*972 FILLER_0_23_185
*973 FILLER_0_23_211
*974 FILLER_0_23_223
*975 FILLER_0_23_225
*976 FILLER_0_23_237
*977 FILLER_0_23_249
*978 FILLER_0_23_261
*979 FILLER_0_23_27
*980 FILLER_0_23_273
*981 FILLER_0_23_279
*982 FILLER_0_23_281
*983 FILLER_0_23_293
*984 FILLER_0_23_3
*985 FILLER_0_23_305
*986 FILLER_0_23_317
*987 FILLER_0_23_329
*988 FILLER_0_23_39
*989 FILLER_0_23_51
*990 FILLER_0_23_55
*991 FILLER_0_23_57
*992 FILLER_0_23_68
*993 FILLER_0_23_76
*994 FILLER_0_23_90
*995 FILLER_0_23_99
*996 FILLER_0_24_109
*997 FILLER_0_24_121
*998 FILLER_0_24_125
*999 FILLER_0_24_138
*1000 FILLER_0_24_15
*1001 FILLER_0_24_150
*1002 FILLER_0_24_158
*1003 FILLER_0_24_162
*1004 FILLER_0_24_174
*1005 FILLER_0_24_182
*1006 FILLER_0_24_190
*1007 FILLER_0_24_202
*1008 FILLER_0_24_214
*1009 FILLER_0_24_232
*1010 FILLER_0_24_244
*1011 FILLER_0_24_253
*1012 FILLER_0_24_265
*1013 FILLER_0_24_27
*1014 FILLER_0_24_277
*1015 FILLER_0_24_289
*1016 FILLER_0_24_29
*1017 FILLER_0_24_3
*1018 FILLER_0_24_301
*1019 FILLER_0_24_307
*1020 FILLER_0_24_309
*1021 FILLER_0_24_321
*1022 FILLER_0_24_333
*1023 FILLER_0_24_41
*1024 FILLER_0_24_49
*1025 FILLER_0_24_56
*1026 FILLER_0_24_60
*1027 FILLER_0_24_72
*1028 FILLER_0_24_79
*1029 FILLER_0_24_83
*1030 FILLER_0_24_85
*1031 FILLER_0_24_97
*1032 FILLER_0_25_104
*1033 FILLER_0_25_129
*1034 FILLER_0_25_133
*1035 FILLER_0_25_148
*1036 FILLER_0_25_15
*1037 FILLER_0_25_154
*1038 FILLER_0_25_169
*1039 FILLER_0_25_181
*1040 FILLER_0_25_187
*1041 FILLER_0_25_202
*1042 FILLER_0_25_214
*1043 FILLER_0_25_222
*1044 FILLER_0_25_243
*1045 FILLER_0_25_255
*1046 FILLER_0_25_267
*1047 FILLER_0_25_27
*1048 FILLER_0_25_279
*1049 FILLER_0_25_281
*1050 FILLER_0_25_293
*1051 FILLER_0_25_3
*1052 FILLER_0_25_305
*1053 FILLER_0_25_317
*1054 FILLER_0_25_329
*1055 FILLER_0_25_43
*1056 FILLER_0_25_57
*1057 FILLER_0_25_77
*1058 FILLER_0_25_90
*1059 FILLER_0_26_101
*1060 FILLER_0_26_106
*1061 FILLER_0_26_114
*1062 FILLER_0_26_122
*1063 FILLER_0_26_134
*1064 FILLER_0_26_141
*1065 FILLER_0_26_15
*1066 FILLER_0_26_176
*1067 FILLER_0_26_188
*1068 FILLER_0_26_194
*1069 FILLER_0_26_202
*1070 FILLER_0_26_208
*1071 FILLER_0_26_220
*1072 FILLER_0_26_237
*1073 FILLER_0_26_249
*1074 FILLER_0_26_253
*1075 FILLER_0_26_265
*1076 FILLER_0_26_27
*1077 FILLER_0_26_277
*1078 FILLER_0_26_289
*1079 FILLER_0_26_29
*1080 FILLER_0_26_3
*1081 FILLER_0_26_301
*1082 FILLER_0_26_307
*1083 FILLER_0_26_309
*1084 FILLER_0_26_321
*1085 FILLER_0_26_333
*1086 FILLER_0_26_40
*1087 FILLER_0_26_52
*1088 FILLER_0_26_64
*1089 FILLER_0_26_76
*1090 FILLER_0_26_85
*1091 FILLER_0_26_93
*1092 FILLER_0_27_102
*1093 FILLER_0_27_113
*1094 FILLER_0_27_120
*1095 FILLER_0_27_127
*1096 FILLER_0_27_133
*1097 FILLER_0_27_137
*1098 FILLER_0_27_149
*1099 FILLER_0_27_15
*1100 FILLER_0_27_161
*1101 FILLER_0_27_167
*1102 FILLER_0_27_169
*1103 FILLER_0_27_182
*1104 FILLER_0_27_186
*1105 FILLER_0_27_196
*1106 FILLER_0_27_204
*1107 FILLER_0_27_208
*1108 FILLER_0_27_21
*1109 FILLER_0_27_215
*1110 FILLER_0_27_223
*1111 FILLER_0_27_225
*1112 FILLER_0_27_242
*1113 FILLER_0_27_25
*1114 FILLER_0_27_254
*1115 FILLER_0_27_266
*1116 FILLER_0_27_278
*1117 FILLER_0_27_281
*1118 FILLER_0_27_293
*1119 FILLER_0_27_3
*1120 FILLER_0_27_305
*1121 FILLER_0_27_317
*1122 FILLER_0_27_329
*1123 FILLER_0_27_33
*1124 FILLER_0_27_45
*1125 FILLER_0_27_70
*1126 FILLER_0_27_79
*1127 FILLER_0_27_87
*1128 FILLER_0_27_97
*1129 FILLER_0_28_109
*1130 FILLER_0_28_118
*1131 FILLER_0_28_126
*1132 FILLER_0_28_144
*1133 FILLER_0_28_15
*1134 FILLER_0_28_186
*1135 FILLER_0_28_203
*1136 FILLER_0_28_21
*1137 FILLER_0_28_219
*1138 FILLER_0_28_225
*1139 FILLER_0_28_238
*1140 FILLER_0_28_250
*1141 FILLER_0_28_253
*1142 FILLER_0_28_265
*1143 FILLER_0_28_277
*1144 FILLER_0_28_289
*1145 FILLER_0_28_3
*1146 FILLER_0_28_301
*1147 FILLER_0_28_307
*1148 FILLER_0_28_309
*1149 FILLER_0_28_321
*1150 FILLER_0_28_333
*1151 FILLER_0_28_41
*1152 FILLER_0_28_53
*1153 FILLER_0_28_66
*1154 FILLER_0_28_82
*1155 FILLER_0_28_85
*1156 FILLER_0_28_99
*1157 FILLER_0_29_110
*1158 FILLER_0_29_117
*1159 FILLER_0_29_138
*1160 FILLER_0_29_15
*1161 FILLER_0_29_150
*1162 FILLER_0_29_162
*1163 FILLER_0_29_169
*1164 FILLER_0_29_179
*1165 FILLER_0_29_19
*1166 FILLER_0_29_191
*1167 FILLER_0_29_203
*1168 FILLER_0_29_215
*1169 FILLER_0_29_223
*1170 FILLER_0_29_225
*1171 FILLER_0_29_24
*1172 FILLER_0_29_244
*1173 FILLER_0_29_256
*1174 FILLER_0_29_268
*1175 FILLER_0_29_281
*1176 FILLER_0_29_293
*1177 FILLER_0_29_3
*1178 FILLER_0_29_305
*1179 FILLER_0_29_317
*1180 FILLER_0_29_32
*1181 FILLER_0_29_329
*1182 FILLER_0_29_38
*1183 FILLER_0_29_42
*1184 FILLER_0_29_47
*1185 FILLER_0_29_53
*1186 FILLER_0_29_61
*1187 FILLER_0_29_67
*1188 FILLER_0_29_74
*1189 FILLER_0_29_81
*1190 FILLER_0_29_98
*1191 FILLER_0_2_109
*1192 FILLER_0_2_121
*1193 FILLER_0_2_133
*1194 FILLER_0_2_139
*1195 FILLER_0_2_141
*1196 FILLER_0_2_15
*1197 FILLER_0_2_153
*1198 FILLER_0_2_165
*1199 FILLER_0_2_177
*1200 FILLER_0_2_189
*1201 FILLER_0_2_195
*1202 FILLER_0_2_197
*1203 FILLER_0_2_209
*1204 FILLER_0_2_221
*1205 FILLER_0_2_233
*1206 FILLER_0_2_245
*1207 FILLER_0_2_251
*1208 FILLER_0_2_253
*1209 FILLER_0_2_265
*1210 FILLER_0_2_27
*1211 FILLER_0_2_277
*1212 FILLER_0_2_289
*1213 FILLER_0_2_29
*1214 FILLER_0_2_3
*1215 FILLER_0_2_301
*1216 FILLER_0_2_307
*1217 FILLER_0_2_309
*1218 FILLER_0_2_321
*1219 FILLER_0_2_333
*1220 FILLER_0_2_41
*1221 FILLER_0_2_53
*1222 FILLER_0_2_65
*1223 FILLER_0_2_77
*1224 FILLER_0_2_83
*1225 FILLER_0_2_85
*1226 FILLER_0_2_97
*1227 FILLER_0_30_104
*1228 FILLER_0_30_108
*1229 FILLER_0_30_127
*1230 FILLER_0_30_137
*1231 FILLER_0_30_141
*1232 FILLER_0_30_15
*1233 FILLER_0_30_162
*1234 FILLER_0_30_174
*1235 FILLER_0_30_187
*1236 FILLER_0_30_209
*1237 FILLER_0_30_218
*1238 FILLER_0_30_226
*1239 FILLER_0_30_243
*1240 FILLER_0_30_251
*1241 FILLER_0_30_26
*1242 FILLER_0_30_260
*1243 FILLER_0_30_272
*1244 FILLER_0_30_278
*1245 FILLER_0_30_288
*1246 FILLER_0_30_3
*1247 FILLER_0_30_300
*1248 FILLER_0_30_309
*1249 FILLER_0_30_321
*1250 FILLER_0_30_333
*1251 FILLER_0_30_36
*1252 FILLER_0_30_44
*1253 FILLER_0_30_53
*1254 FILLER_0_30_57
*1255 FILLER_0_30_61
*1256 FILLER_0_30_82
*1257 FILLER_0_30_88
*1258 FILLER_0_31_108
*1259 FILLER_0_31_121
*1260 FILLER_0_31_127
*1261 FILLER_0_31_131
*1262 FILLER_0_31_138
*1263 FILLER_0_31_15
*1264 FILLER_0_31_150
*1265 FILLER_0_31_162
*1266 FILLER_0_31_181
*1267 FILLER_0_31_19
*1268 FILLER_0_31_193
*1269 FILLER_0_31_205
*1270 FILLER_0_31_218
*1271 FILLER_0_31_225
*1272 FILLER_0_31_237
*1273 FILLER_0_31_251
*1274 FILLER_0_31_259
*1275 FILLER_0_31_268
*1276 FILLER_0_31_28
*1277 FILLER_0_31_290
*1278 FILLER_0_31_3
*1279 FILLER_0_31_310
*1280 FILLER_0_31_320
*1281 FILLER_0_31_332
*1282 FILLER_0_31_36
*1283 FILLER_0_31_42
*1284 FILLER_0_31_54
*1285 FILLER_0_31_57
*1286 FILLER_0_31_69
*1287 FILLER_0_31_77
*1288 FILLER_0_31_84
*1289 FILLER_0_31_96
*1290 FILLER_0_32_109
*1291 FILLER_0_32_129
*1292 FILLER_0_32_144
*1293 FILLER_0_32_15
*1294 FILLER_0_32_166
*1295 FILLER_0_32_175
*1296 FILLER_0_32_183
*1297 FILLER_0_32_19
*1298 FILLER_0_32_202
*1299 FILLER_0_32_213
*1300 FILLER_0_32_228
*1301 FILLER_0_32_244
*1302 FILLER_0_32_251
*1303 FILLER_0_32_253
*1304 FILLER_0_32_261
*1305 FILLER_0_32_27
*1306 FILLER_0_32_276
*1307 FILLER_0_32_287
*1308 FILLER_0_32_3
*1309 FILLER_0_32_302
*1310 FILLER_0_32_309
*1311 FILLER_0_32_32
*1312 FILLER_0_32_321
*1313 FILLER_0_32_333
*1314 FILLER_0_32_36
*1315 FILLER_0_32_70
*1316 FILLER_0_32_83
*1317 FILLER_0_32_85
*1318 FILLER_0_33_101
*1319 FILLER_0_33_109
*1320 FILLER_0_33_116
*1321 FILLER_0_33_128
*1322 FILLER_0_33_141
*1323 FILLER_0_33_15
*1324 FILLER_0_33_153
*1325 FILLER_0_33_161
*1326 FILLER_0_33_167
*1327 FILLER_0_33_169
*1328 FILLER_0_33_179
*1329 FILLER_0_33_183
*1330 FILLER_0_33_21
*1331 FILLER_0_33_223
*1332 FILLER_0_33_225
*1333 FILLER_0_33_233
*1334 FILLER_0_33_247
*1335 FILLER_0_33_25
*1336 FILLER_0_33_251
*1337 FILLER_0_33_266
*1338 FILLER_0_33_278
*1339 FILLER_0_33_281
*1340 FILLER_0_33_295
*1341 FILLER_0_33_3
*1342 FILLER_0_33_307
*1343 FILLER_0_33_322
*1344 FILLER_0_33_33
*1345 FILLER_0_33_334
*1346 FILLER_0_33_45
*1347 FILLER_0_33_53
*1348 FILLER_0_33_57
*1349 FILLER_0_33_65
*1350 FILLER_0_33_77
*1351 FILLER_0_33_89
*1352 FILLER_0_34_103
*1353 FILLER_0_34_123
*1354 FILLER_0_34_131
*1355 FILLER_0_34_139
*1356 FILLER_0_34_141
*1357 FILLER_0_34_15
*1358 FILLER_0_34_165
*1359 FILLER_0_34_184
*1360 FILLER_0_34_200
*1361 FILLER_0_34_212
*1362 FILLER_0_34_218
*1363 FILLER_0_34_222
*1364 FILLER_0_34_230
*1365 FILLER_0_34_238
*1366 FILLER_0_34_250
*1367 FILLER_0_34_253
*1368 FILLER_0_34_257
*1369 FILLER_0_34_280
*1370 FILLER_0_34_292
*1371 FILLER_0_34_3
*1372 FILLER_0_34_300
*1373 FILLER_0_34_309
*1374 FILLER_0_34_326
*1375 FILLER_0_34_334
*1376 FILLER_0_34_40
*1377 FILLER_0_34_55
*1378 FILLER_0_34_67
*1379 FILLER_0_34_71
*1380 FILLER_0_34_83
*1381 FILLER_0_34_85
*1382 FILLER_0_34_89
*1383 FILLER_0_35_105
*1384 FILLER_0_35_111
*1385 FILLER_0_35_121
*1386 FILLER_0_35_141
*1387 FILLER_0_35_149
*1388 FILLER_0_35_15
*1389 FILLER_0_35_155
*1390 FILLER_0_35_167
*1391 FILLER_0_35_169
*1392 FILLER_0_35_178
*1393 FILLER_0_35_184
*1394 FILLER_0_35_215
*1395 FILLER_0_35_223
*1396 FILLER_0_35_23
*1397 FILLER_0_35_232
*1398 FILLER_0_35_247
*1399 FILLER_0_35_264
*1400 FILLER_0_35_27
*1401 FILLER_0_35_272
*1402 FILLER_0_35_296
*1403 FILLER_0_35_3
*1404 FILLER_0_35_309
*1405 FILLER_0_35_317
*1406 FILLER_0_35_39
*1407 FILLER_0_35_47
*1408 FILLER_0_35_82
*1409 FILLER_0_35_90
*1410 FILLER_0_36_110
*1411 FILLER_0_36_119
*1412 FILLER_0_36_127
*1413 FILLER_0_36_139
*1414 FILLER_0_36_147
*1415 FILLER_0_36_15
*1416 FILLER_0_36_154
*1417 FILLER_0_36_171
*1418 FILLER_0_36_185
*1419 FILLER_0_36_193
*1420 FILLER_0_36_205
*1421 FILLER_0_36_213
*1422 FILLER_0_36_224
*1423 FILLER_0_36_240
*1424 FILLER_0_36_259
*1425 FILLER_0_36_26
*1426 FILLER_0_36_278
*1427 FILLER_0_36_290
*1428 FILLER_0_36_297
*1429 FILLER_0_36_3
*1430 FILLER_0_36_302
*1431 FILLER_0_36_309
*1432 FILLER_0_36_322
*1433 FILLER_0_36_334
*1434 FILLER_0_36_52
*1435 FILLER_0_36_73
*1436 FILLER_0_36_81
*1437 FILLER_0_36_85
*1438 FILLER_0_36_89
*1439 FILLER_0_36_98
*1440 FILLER_0_37_106
*1441 FILLER_0_37_113
*1442 FILLER_0_37_118
*1443 FILLER_0_37_143
*1444 FILLER_0_37_15
*1445 FILLER_0_37_151
*1446 FILLER_0_37_165
*1447 FILLER_0_37_169
*1448 FILLER_0_37_180
*1449 FILLER_0_37_218
*1450 FILLER_0_37_222
*1451 FILLER_0_37_250
*1452 FILLER_0_37_258
*1453 FILLER_0_37_27
*1454 FILLER_0_37_272
*1455 FILLER_0_37_281
*1456 FILLER_0_37_287
*1457 FILLER_0_37_3
*1458 FILLER_0_37_306
*1459 FILLER_0_37_320
*1460 FILLER_0_37_333
*1461 FILLER_0_37_38
*1462 FILLER_0_37_50
*1463 FILLER_0_37_60
*1464 FILLER_0_37_68
*1465 FILLER_0_37_89
*1466 FILLER_0_38_10
*1467 FILLER_0_38_102
*1468 FILLER_0_38_113
*1469 FILLER_0_38_134
*1470 FILLER_0_38_14
*1471 FILLER_0_38_160
*1472 FILLER_0_38_169
*1473 FILLER_0_38_179
*1474 FILLER_0_38_18
*1475 FILLER_0_38_186
*1476 FILLER_0_38_202
*1477 FILLER_0_38_22
*1478 FILLER_0_38_223
*1479 FILLER_0_38_225
*1480 FILLER_0_38_268
*1481 FILLER_0_38_279
*1482 FILLER_0_38_287
*1483 FILLER_0_38_297
*1484 FILLER_0_38_302
*1485 FILLER_0_38_334
*1486 FILLER_0_38_54
*1487 FILLER_0_38_57
*1488 FILLER_0_38_6
*1489 FILLER_0_38_62
*1490 FILLER_0_38_66
*1491 FILLER_0_38_70
*1492 FILLER_0_38_74
*1493 FILLER_0_38_78
*1494 FILLER_0_38_88
*1495 FILLER_0_38_96
*1496 FILLER_0_3_105
*1497 FILLER_0_3_111
*1498 FILLER_0_3_113
*1499 FILLER_0_3_125
*1500 FILLER_0_3_137
*1501 FILLER_0_3_149
*1502 FILLER_0_3_15
*1503 FILLER_0_3_161
*1504 FILLER_0_3_167
*1505 FILLER_0_3_169
*1506 FILLER_0_3_181
*1507 FILLER_0_3_193
*1508 FILLER_0_3_205
*1509 FILLER_0_3_217
*1510 FILLER_0_3_223
*1511 FILLER_0_3_225
*1512 FILLER_0_3_237
*1513 FILLER_0_3_249
*1514 FILLER_0_3_261
*1515 FILLER_0_3_27
*1516 FILLER_0_3_273
*1517 FILLER_0_3_279
*1518 FILLER_0_3_281
*1519 FILLER_0_3_293
*1520 FILLER_0_3_3
*1521 FILLER_0_3_305
*1522 FILLER_0_3_317
*1523 FILLER_0_3_329
*1524 FILLER_0_3_39
*1525 FILLER_0_3_51
*1526 FILLER_0_3_55
*1527 FILLER_0_3_57
*1528 FILLER_0_3_69
*1529 FILLER_0_3_81
*1530 FILLER_0_3_93
*1531 FILLER_0_4_109
*1532 FILLER_0_4_121
*1533 FILLER_0_4_133
*1534 FILLER_0_4_139
*1535 FILLER_0_4_141
*1536 FILLER_0_4_15
*1537 FILLER_0_4_153
*1538 FILLER_0_4_165
*1539 FILLER_0_4_177
*1540 FILLER_0_4_189
*1541 FILLER_0_4_195
*1542 FILLER_0_4_197
*1543 FILLER_0_4_209
*1544 FILLER_0_4_221
*1545 FILLER_0_4_233
*1546 FILLER_0_4_245
*1547 FILLER_0_4_251
*1548 FILLER_0_4_253
*1549 FILLER_0_4_265
*1550 FILLER_0_4_27
*1551 FILLER_0_4_277
*1552 FILLER_0_4_289
*1553 FILLER_0_4_29
*1554 FILLER_0_4_3
*1555 FILLER_0_4_301
*1556 FILLER_0_4_307
*1557 FILLER_0_4_309
*1558 FILLER_0_4_321
*1559 FILLER_0_4_333
*1560 FILLER_0_4_41
*1561 FILLER_0_4_53
*1562 FILLER_0_4_65
*1563 FILLER_0_4_77
*1564 FILLER_0_4_83
*1565 FILLER_0_4_85
*1566 FILLER_0_4_97
*1567 FILLER_0_5_105
*1568 FILLER_0_5_111
*1569 FILLER_0_5_113
*1570 FILLER_0_5_125
*1571 FILLER_0_5_137
*1572 FILLER_0_5_149
*1573 FILLER_0_5_15
*1574 FILLER_0_5_161
*1575 FILLER_0_5_167
*1576 FILLER_0_5_169
*1577 FILLER_0_5_181
*1578 FILLER_0_5_193
*1579 FILLER_0_5_205
*1580 FILLER_0_5_217
*1581 FILLER_0_5_223
*1582 FILLER_0_5_225
*1583 FILLER_0_5_237
*1584 FILLER_0_5_249
*1585 FILLER_0_5_261
*1586 FILLER_0_5_27
*1587 FILLER_0_5_273
*1588 FILLER_0_5_279
*1589 FILLER_0_5_281
*1590 FILLER_0_5_293
*1591 FILLER_0_5_3
*1592 FILLER_0_5_305
*1593 FILLER_0_5_317
*1594 FILLER_0_5_329
*1595 FILLER_0_5_39
*1596 FILLER_0_5_51
*1597 FILLER_0_5_55
*1598 FILLER_0_5_57
*1599 FILLER_0_5_69
*1600 FILLER_0_5_81
*1601 FILLER_0_5_93
*1602 FILLER_0_6_109
*1603 FILLER_0_6_121
*1604 FILLER_0_6_133
*1605 FILLER_0_6_139
*1606 FILLER_0_6_141
*1607 FILLER_0_6_15
*1608 FILLER_0_6_153
*1609 FILLER_0_6_165
*1610 FILLER_0_6_177
*1611 FILLER_0_6_189
*1612 FILLER_0_6_195
*1613 FILLER_0_6_197
*1614 FILLER_0_6_209
*1615 FILLER_0_6_221
*1616 FILLER_0_6_233
*1617 FILLER_0_6_245
*1618 FILLER_0_6_251