*SPEF "ieee 1481-1999"
*DESIGN "tt_um_fp_mac"
*DATE "10:00:48 Thursday May 23, 2024"
*VENDOR "The OpenROAD Project"
*PROGRAM "OpenROAD"
*VERSION "da0053d7b0014ab9c87ea148875ff6c2a0f9b658"
*DESIGN_FLOW "NAME_SCOPE LOCAL" "PIN_CAP NONE"
*DIVIDER /
*DELIMITER :
*BUS_DELIMITER []
*T_UNIT 1 NS
*C_UNIT 1 PF
*R_UNIT 1 OHM
*L_UNIT 1 HENRY

*NAME_MAP
*3 clk
*4 ena
*5 rst_n
*6 ui_in[0]
*7 ui_in[1]
*8 ui_in[2]
*9 ui_in[3]
*10 ui_in[4]
*11 ui_in[5]
*12 ui_in[6]
*13 ui_in[7]
*14 uio_in[0]
*15 uio_in[1]
*16 uio_in[2]
*17 uio_in[3]
*18 uio_in[4]
*19 uio_in[5]
*20 uio_in[6]
*21 uio_in[7]
*22 net19
*23 net20
*24 net21
*25 net22
*26 net23
*27 net24
*28 net25
*29 net26
*30 net27
*31 net28
*32 net29
*33 net30
*34 net31
*35 net32
*36 net33
*37 net34
*38 uo_out[0]
*39 uo_out[1]
*40 uo_out[2]
*41 uo_out[3]
*42 uo_out[4]
*43 uo_out[5]
*44 uo_out[6]
*45 uo_out[7]
*46 _000_
*47 _001_
*48 _002_
*49 _003_
*50 _004_
*51 _005_
*52 _006_
*53 _007_
*54 _008_
*55 _009_
*56 _010_
*57 _011_
*58 _012_
*59 _013_
*60 _014_
*61 _015_
*62 _016_
*63 _017_
*64 _018_
*65 _019_
*66 _020_
*67 _021_
*68 _022_
*69 _023_
*70 _024_
*71 _025_
*72 _026_
*73 _027_
*74 _028_
*75 _029_
*76 _030_
*77 _031_
*78 _032_
*79 _033_
*80 _034_
*81 _035_
*82 _036_
*83 _037_
*84 _038_
*85 _039_
*86 _040_
*87 _041_
*88 _042_
*89 _043_
*90 _044_
*91 _045_
*92 _046_
*93 _047_
*94 _048_
*95 _049_
*96 _050_
*97 _051_
*98 _052_
*99 _053_
*100 _054_
*101 _055_
*102 _056_
*103 _057_
*104 _058_
*105 _059_
*106 _060_
*107 _061_
*108 _062_
*109 _063_
*110 _064_
*111 _065_
*112 _066_
*113 _067_
*114 _068_
*115 _069_
*116 _070_
*117 _071_
*118 _072_
*119 _073_
*120 _074_
*121 _075_
*122 _076_
*123 _077_
*124 _078_
*125 _079_
*126 _080_
*127 _081_
*128 _082_
*129 _083_
*130 _084_
*131 _085_
*132 _086_
*133 _087_
*134 _088_
*135 _089_
*136 _090_
*137 _091_
*138 _092_
*139 _093_
*140 _094_
*141 _095_
*142 _096_
*143 _097_
*144 _098_
*145 _099_
*146 _100_
*147 _101_
*148 _102_
*149 _103_
*150 _104_
*151 _105_
*152 _106_
*153 _107_
*154 _108_
*155 _109_
*156 _110_
*157 _111_
*158 _112_
*159 _113_
*160 _114_
*161 _115_
*162 _116_
*163 _117_
*164 _118_
*165 _119_
*166 _120_
*167 _121_
*168 _122_
*169 _123_
*170 _124_
*171 _125_
*172 _126_
*173 _127_
*174 _128_
*175 _129_
*176 _130_
*177 _131_
*178 _132_
*179 _133_
*180 _134_
*181 _135_
*182 _136_
*183 _137_
*184 _138_
*185 _139_
*186 _140_
*187 _141_
*188 _142_
*189 _143_
*190 _144_
*191 _145_
*192 _146_
*193 _147_
*194 _148_
*195 _149_
*196 _150_
*197 _151_
*198 _152_
*199 _153_
*200 _154_
*201 _155_
*202 _156_
*203 _157_
*204 _158_
*205 _159_
*206 _160_
*207 _161_
*208 _162_
*209 _163_
*210 _164_
*211 _165_
*212 _166_
*213 _167_
*214 _168_
*215 _169_
*216 _170_
*217 _171_
*218 _172_
*219 _173_
*220 _174_
*221 _175_
*222 _176_
*223 _177_
*224 _178_
*225 _179_
*226 _180_
*227 _181_
*228 _182_
*229 _183_
*230 _184_
*231 _185_
*232 _186_
*233 _187_
*234 _188_
*235 _189_
*236 _190_
*237 _191_
*238 _192_
*239 _193_
*240 _194_
*241 _195_
*242 _196_
*243 _197_
*244 _198_
*245 _199_
*246 _200_
*247 _201_
*248 _202_
*249 _203_
*250 _204_
*251 _205_
*252 _206_
*253 _207_
*254 _208_
*255 _209_
*256 _210_
*257 _211_
*258 _212_
*259 _213_
*260 _214_
*261 _215_
*262 _216_
*263 _217_
*264 _218_
*265 _219_
*266 _220_
*267 _221_
*268 _222_
*269 _223_
*270 _224_
*271 _225_
*272 _226_
*273 _227_
*274 _228_
*275 _229_
*276 _230_
*277 _231_
*278 _232_
*279 _233_
*280 _234_
*281 _235_
*282 _236_
*283 _237_
*284 _238_
*285 _239_
*286 _240_
*287 _241_
*288 _242_
*289 _243_
*290 _244_
*291 _245_
*292 _246_
*293 _247_
*294 _248_
*295 _249_
*296 _250_
*297 _251_
*298 _252_
*299 _253_
*300 _254_
*301 _255_
*302 _256_
*303 _257_
*304 _258_
*305 _259_
*306 _260_
*307 _261_
*308 _262_
*309 _263_
*310 _264_
*311 _265_
*312 _266_
*313 _267_
*314 _268_
*315 _269_
*316 _270_
*317 _271_
*318 _272_
*319 _273_
*320 _274_
*321 _275_
*322 _276_
*323 _277_
*324 _278_
*325 _279_
*326 _280_
*327 _281_
*328 _282_
*329 _283_
*330 _284_
*331 _285_
*332 _286_
*333 _287_
*334 _288_
*335 _289_
*336 _290_
*337 _291_
*338 _292_
*339 _293_
*340 _294_
*341 _295_
*342 _296_
*343 _297_
*344 _298_
*345 _299_
*346 _300_
*347 _301_
*348 _302_
*349 _303_
*350 _304_
*351 _305_
*352 _306_
*353 _307_
*354 _308_
*355 _309_
*356 _310_
*357 _311_
*358 _312_
*359 _313_
*360 _314_
*361 _315_
*362 _316_
*363 _317_
*364 _318_
*365 _319_
*366 _320_
*367 _321_
*368 _322_
*369 _323_
*370 _324_
*371 _325_
*372 _326_
*373 _327_
*374 _328_
*375 _329_
*376 _330_
*377 _331_
*378 _332_
*379 _333_
*380 _334_
*381 _335_
*382 _336_
*383 _337_
*384 _338_
*385 _339_
*386 _340_
*387 _341_
*388 _342_
*389 _343_
*390 _344_
*391 _345_
*392 _346_
*393 _347_
*394 _348_
*395 _349_
*396 _350_
*397 _351_
*398 _352_
*399 _353_
*400 _354_
*401 _355_
*402 _356_
*403 _357_
*404 _358_
*405 _359_
*406 _360_
*407 _361_
*408 _362_
*409 _363_
*410 _364_
*411 _365_
*412 _366_
*413 _367_
*414 _368_
*415 _369_
*416 _370_
*417 _371_
*418 _372_
*419 _373_
*420 _374_
*421 _375_
*422 _376_
*423 _377_
*424 _378_
*425 adder\.signB
*426 clknet_0_clk
*427 clknet_1_0__leaf_clk
*428 clknet_1_1__leaf_clk
*429 count\[0\]
*430 count\[1\]
*431 net1
*432 net10
*433 net11
*434 net12
*435 net13
*436 net14
*437 net15
*438 net16
*439 net17
*440 net18
*441 net2
*442 net3
*443 net4
*444 net5
*445 net6
*446 net7
*447 net8
*448 net9
*449 FILLER_0_0_109
*450 FILLER_0_0_113
*451 FILLER_0_0_125
*452 FILLER_0_0_137
*453 FILLER_0_0_141
*454 FILLER_0_0_15
*455 FILLER_0_0_153
*456 FILLER_0_0_165
*457 FILLER_0_0_169
*458 FILLER_0_0_181
*459 FILLER_0_0_193
*460 FILLER_0_0_197
*461 FILLER_0_0_209
*462 FILLER_0_0_221
*463 FILLER_0_0_225
*464 FILLER_0_0_237
*465 FILLER_0_0_249
*466 FILLER_0_0_253
*467 FILLER_0_0_265
*468 FILLER_0_0_27
*469 FILLER_0_0_277
*470 FILLER_0_0_281
*471 FILLER_0_0_29
*472 FILLER_0_0_293
*473 FILLER_0_0_3
*474 FILLER_0_0_305
*475 FILLER_0_0_309
*476 FILLER_0_0_321
*477 FILLER_0_0_333
*478 FILLER_0_0_41
*479 FILLER_0_0_53
*480 FILLER_0_0_57
*481 FILLER_0_0_69
*482 FILLER_0_0_81
*483 FILLER_0_0_85
*484 FILLER_0_0_97
*485 FILLER_0_10_109
*486 FILLER_0_10_121
*487 FILLER_0_10_133
*488 FILLER_0_10_139
*489 FILLER_0_10_141
*490 FILLER_0_10_15
*491 FILLER_0_10_153
*492 FILLER_0_10_165
*493 FILLER_0_10_177
*494 FILLER_0_10_189
*495 FILLER_0_10_195
*496 FILLER_0_10_197
*497 FILLER_0_10_209
*498 FILLER_0_10_221
*499 FILLER_0_10_233
*500 FILLER_0_10_245
*501 FILLER_0_10_251
*502 FILLER_0_10_253
*503 FILLER_0_10_265
*504 FILLER_0_10_27
*505 FILLER_0_10_277
*506 FILLER_0_10_289
*507 FILLER_0_10_29
*508 FILLER_0_10_3
*509 FILLER_0_10_301
*510 FILLER_0_10_307
*511 FILLER_0_10_309
*512 FILLER_0_10_321
*513 FILLER_0_10_333
*514 FILLER_0_10_41
*515 FILLER_0_10_53
*516 FILLER_0_10_65
*517 FILLER_0_10_77
*518 FILLER_0_10_83
*519 FILLER_0_10_85
*520 FILLER_0_10_97
*521 FILLER_0_11_105
*522 FILLER_0_11_111
*523 FILLER_0_11_113
*524 FILLER_0_11_125
*525 FILLER_0_11_137
*526 FILLER_0_11_149
*527 FILLER_0_11_15
*528 FILLER_0_11_161
*529 FILLER_0_11_167
*530 FILLER_0_11_169
*531 FILLER_0_11_181
*532 FILLER_0_11_193
*533 FILLER_0_11_205
*534 FILLER_0_11_217
*535 FILLER_0_11_223
*536 FILLER_0_11_225
*537 FILLER_0_11_237
*538 FILLER_0_11_249
*539 FILLER_0_11_261
*540 FILLER_0_11_27
*541 FILLER_0_11_273
*542 FILLER_0_11_279
*543 FILLER_0_11_281
*544 FILLER_0_11_293
*545 FILLER_0_11_3
*546 FILLER_0_11_305
*547 FILLER_0_11_317
*548 FILLER_0_11_329
*549 FILLER_0_11_39
*550 FILLER_0_11_51
*551 FILLER_0_11_55
*552 FILLER_0_11_57
*553 FILLER_0_11_69
*554 FILLER_0_11_81
*555 FILLER_0_11_93
*556 FILLER_0_12_109
*557 FILLER_0_12_121
*558 FILLER_0_12_133
*559 FILLER_0_12_139
*560 FILLER_0_12_141
*561 FILLER_0_12_15
*562 FILLER_0_12_153
*563 FILLER_0_12_165
*564 FILLER_0_12_177
*565 FILLER_0_12_189
*566 FILLER_0_12_195
*567 FILLER_0_12_197
*568 FILLER_0_12_209
*569 FILLER_0_12_221
*570 FILLER_0_12_233
*571 FILLER_0_12_245
*572 FILLER_0_12_251
*573 FILLER_0_12_253
*574 FILLER_0_12_265
*575 FILLER_0_12_27
*576 FILLER_0_12_277
*577 FILLER_0_12_289
*578 FILLER_0_12_29
*579 FILLER_0_12_3
*580 FILLER_0_12_301
*581 FILLER_0_12_307
*582 FILLER_0_12_309
*583 FILLER_0_12_321
*584 FILLER_0_12_333
*585 FILLER_0_12_41
*586 FILLER_0_12_53
*587 FILLER_0_12_65
*588 FILLER_0_12_77
*589 FILLER_0_12_83
*590 FILLER_0_12_85
*591 FILLER_0_12_97
*592 FILLER_0_13_105
*593 FILLER_0_13_111
*594 FILLER_0_13_113
*595 FILLER_0_13_125
*596 FILLER_0_13_137
*597 FILLER_0_13_149
*598 FILLER_0_13_15
*599 FILLER_0_13_161
*600 FILLER_0_13_167
*601 FILLER_0_13_169
*602 FILLER_0_13_181
*603 FILLER_0_13_193
*604 FILLER_0_13_205
*605 FILLER_0_13_217
*606 FILLER_0_13_223
*607 FILLER_0_13_225
*608 FILLER_0_13_237
*609 FILLER_0_13_249
*610 FILLER_0_13_261
*611 FILLER_0_13_27
*612 FILLER_0_13_273
*613 FILLER_0_13_279
*614 FILLER_0_13_281
*615 FILLER_0_13_293
*616 FILLER_0_13_3
*617 FILLER_0_13_305
*618 FILLER_0_13_317
*619 FILLER_0_13_329
*620 FILLER_0_13_39
*621 FILLER_0_13_51
*622 FILLER_0_13_55
*623 FILLER_0_13_57
*624 FILLER_0_13_69
*625 FILLER_0_13_81
*626 FILLER_0_13_93
*627 FILLER_0_14_109
*628 FILLER_0_14_121
*629 FILLER_0_14_133
*630 FILLER_0_14_139
*631 FILLER_0_14_141
*632 FILLER_0_14_15
*633 FILLER_0_14_153
*634 FILLER_0_14_165
*635 FILLER_0_14_177
*636 FILLER_0_14_189
*637 FILLER_0_14_195
*638 FILLER_0_14_197
*639 FILLER_0_14_209
*640 FILLER_0_14_221
*641 FILLER_0_14_233
*642 FILLER_0_14_245
*643 FILLER_0_14_251
*644 FILLER_0_14_253
*645 FILLER_0_14_265
*646 FILLER_0_14_27
*647 FILLER_0_14_277
*648 FILLER_0_14_289
*649 FILLER_0_14_29
*650 FILLER_0_14_3
*651 FILLER_0_14_301
*652 FILLER_0_14_307
*653 FILLER_0_14_309
*654 FILLER_0_14_321
*655 FILLER_0_14_333
*656 FILLER_0_14_41
*657 FILLER_0_14_53
*658 FILLER_0_14_65
*659 FILLER_0_14_77
*660 FILLER_0_14_83
*661 FILLER_0_14_85
*662 FILLER_0_14_97
*663 FILLER_0_15_105
*664 FILLER_0_15_111
*665 FILLER_0_15_113
*666 FILLER_0_15_125
*667 FILLER_0_15_137
*668 FILLER_0_15_149
*669 FILLER_0_15_15
*670 FILLER_0_15_161
*671 FILLER_0_15_167
*672 FILLER_0_15_169
*673 FILLER_0_15_181
*674 FILLER_0_15_193
*675 FILLER_0_15_205
*676 FILLER_0_15_217
*677 FILLER_0_15_223
*678 FILLER_0_15_225
*679 FILLER_0_15_237
*680 FILLER_0_15_249
*681 FILLER_0_15_261
*682 FILLER_0_15_27
*683 FILLER_0_15_273
*684 FILLER_0_15_279
*685 FILLER_0_15_281
*686 FILLER_0_15_293
*687 FILLER_0_15_3
*688 FILLER_0_15_305
*689 FILLER_0_15_317
*690 FILLER_0_15_329
*691 FILLER_0_15_39
*692 FILLER_0_15_51
*693 FILLER_0_15_55
*694 FILLER_0_15_57
*695 FILLER_0_15_69
*696 FILLER_0_15_81
*697 FILLER_0_15_93
*698 FILLER_0_16_109
*699 FILLER_0_16_121
*700 FILLER_0_16_133
*701 FILLER_0_16_139
*702 FILLER_0_16_141
*703 FILLER_0_16_15
*704 FILLER_0_16_153
*705 FILLER_0_16_165
*706 FILLER_0_16_177
*707 FILLER_0_16_189
*708 FILLER_0_16_195
*709 FILLER_0_16_197
*710 FILLER_0_16_209
*711 FILLER_0_16_221
*712 FILLER_0_16_233
*713 FILLER_0_16_245
*714 FILLER_0_16_251
*715 FILLER_0_16_253
*716 FILLER_0_16_265
*717 FILLER_0_16_27
*718 FILLER_0_16_277
*719 FILLER_0_16_289
*720 FILLER_0_16_29
*721 FILLER_0_16_3
*722 FILLER_0_16_301
*723 FILLER_0_16_307
*724 FILLER_0_16_309
*725 FILLER_0_16_321
*726 FILLER_0_16_333
*727 FILLER_0_16_41
*728 FILLER_0_16_53
*729 FILLER_0_16_65
*730 FILLER_0_16_77
*731 FILLER_0_16_83
*732 FILLER_0_16_85
*733 FILLER_0_16_97
*734 FILLER_0_17_105
*735 FILLER_0_17_111
*736 FILLER_0_17_113
*737 FILLER_0_17_125
*738 FILLER_0_17_137
*739 FILLER_0_17_149
*740 FILLER_0_17_15
*741 FILLER_0_17_161
*742 FILLER_0_17_167
*743 FILLER_0_17_169
*744 FILLER_0_17_181
*745 FILLER_0_17_193
*746 FILLER_0_17_205
*747 FILLER_0_17_217
*748 FILLER_0_17_223
*749 FILLER_0_17_225
*750 FILLER_0_17_237
*751 FILLER_0_17_249
*752 FILLER_0_17_261
*753 FILLER_0_17_27
*754 FILLER_0_17_273
*755 FILLER_0_17_279
*756 FILLER_0_17_281
*757 FILLER_0_17_293
*758 FILLER_0_17_3
*759 FILLER_0_17_305
*760 FILLER_0_17_317
*761 FILLER_0_17_329
*762 FILLER_0_17_39
*763 FILLER_0_17_51
*764 FILLER_0_17_55
*765 FILLER_0_17_57
*766 FILLER_0_17_69
*767 FILLER_0_17_81
*768 FILLER_0_17_93
*769 FILLER_0_18_109
*770 FILLER_0_18_121
*771 FILLER_0_18_133
*772 FILLER_0_18_139
*773 FILLER_0_18_141
*774 FILLER_0_18_15
*775 FILLER_0_18_153
*776 FILLER_0_18_165
*777 FILLER_0_18_177
*778 FILLER_0_18_189
*779 FILLER_0_18_195
*780 FILLER_0_18_197
*781 FILLER_0_18_209
*782 FILLER_0_18_221
*783 FILLER_0_18_233
*784 FILLER_0_18_245
*785 FILLER_0_18_251
*786 FILLER_0_18_253
*787 FILLER_0_18_265
*788 FILLER_0_18_27
*789 FILLER_0_18_277
*790 FILLER_0_18_289
*791 FILLER_0_18_29
*792 FILLER_0_18_3
*793 FILLER_0_18_301
*794 FILLER_0_18_307
*795 FILLER_0_18_309
*796 FILLER_0_18_321
*797 FILLER_0_18_333
*798 FILLER_0_18_41
*799 FILLER_0_18_53
*800 FILLER_0_18_65
*801 FILLER_0_18_77
*802 FILLER_0_18_83
*803 FILLER_0_18_85
*804 FILLER_0_18_97
*805 FILLER_0_19_105
*806 FILLER_0_19_111
*807 FILLER_0_19_113
*808 FILLER_0_19_125
*809 FILLER_0_19_137
*810 FILLER_0_19_149
*811 FILLER_0_19_15
*812 FILLER_0_19_161
*813 FILLER_0_19_167
*814 FILLER_0_19_169
*815 FILLER_0_19_181
*816 FILLER_0_19_193
*817 FILLER_0_19_205
*818 FILLER_0_19_217
*819 FILLER_0_19_223
*820 FILLER_0_19_225
*821 FILLER_0_19_237
*822 FILLER_0_19_249
*823 FILLER_0_19_261
*824 FILLER_0_19_27
*825 FILLER_0_19_273
*826 FILLER_0_19_279
*827 FILLER_0_19_281
*828 FILLER_0_19_293
*829 FILLER_0_19_3
*830 FILLER_0_19_305
*831 FILLER_0_19_317
*832 FILLER_0_19_329
*833 FILLER_0_19_39
*834 FILLER_0_19_51
*835 FILLER_0_19_55
*836 FILLER_0_19_57
*837 FILLER_0_19_69
*838 FILLER_0_19_81
*839 FILLER_0_19_93
*840 FILLER_0_1_105
*841 FILLER_0_1_111
*842 FILLER_0_1_113
*843 FILLER_0_1_125
*844 FILLER_0_1_137
*845 FILLER_0_1_149
*846 FILLER_0_1_15
*847 FILLER_0_1_161
*848 FILLER_0_1_167
*849 FILLER_0_1_169
*850 FILLER_0_1_181
*851 FILLER_0_1_193
*852 FILLER_0_1_205
*853 FILLER_0_1_217
*854 FILLER_0_1_223
*855 FILLER_0_1_225
*856 FILLER_0_1_237
*857 FILLER_0_1_249
*858 FILLER_0_1_261
*859 FILLER_0_1_27
*860 FILLER_0_1_273
*861 FILLER_0_1_279
*862 FILLER_0_1_281
*863 FILLER_0_1_293
*864 FILLER_0_1_3
*865 FILLER_0_1_305
*866 FILLER_0_1_317
*867 FILLER_0_1_329
*868 FILLER_0_1_39
*869 FILLER_0_1_51
*870 FILLER_0_1_55
*871 FILLER_0_1_57
*872 FILLER_0_1_69
*873 FILLER_0_1_81
*874 FILLER_0_1_93
*875 FILLER_0_20_104
*876 FILLER_0_20_112
*877 FILLER_0_20_134
*878 FILLER_0_20_141
*879 FILLER_0_20_149
*880 FILLER_0_20_15
*881 FILLER_0_20_153
*882 FILLER_0_20_163
*883 FILLER_0_20_175
*884 FILLER_0_20_180
*885 FILLER_0_20_192
*886 FILLER_0_20_197
*887 FILLER_0_20_209
*888 FILLER_0_20_221
*889 FILLER_0_20_233
*890 FILLER_0_20_245
*891 FILLER_0_20_251
*892 FILLER_0_20_253
*893 FILLER_0_20_265
*894 FILLER_0_20_27
*895 FILLER_0_20_277
*896 FILLER_0_20_289
*897 FILLER_0_20_29
*898 FILLER_0_20_3
*899 FILLER_0_20_301
*900 FILLER_0_20_307
*901 FILLER_0_20_309
*902 FILLER_0_20_321
*903 FILLER_0_20_333
*904 FILLER_0_20_41
*905 FILLER_0_20_53
*906 FILLER_0_20_65
*907 FILLER_0_20_82
*908 FILLER_0_20_85
*909 FILLER_0_20_92
*910 FILLER_0_21_101
*911 FILLER_0_21_111
*912 FILLER_0_21_116
*913 FILLER_0_21_128
*914 FILLER_0_21_136
*915 FILLER_0_21_149
*916 FILLER_0_21_15
*917 FILLER_0_21_153
*918 FILLER_0_21_165
*919 FILLER_0_21_169
*920 FILLER_0_21_173
*921 FILLER_0_21_187
*922 FILLER_0_21_199
*923 FILLER_0_21_211
*924 FILLER_0_21_223
*925 FILLER_0_21_225
*926 FILLER_0_21_237
*927 FILLER_0_21_249
*928 FILLER_0_21_261
*929 FILLER_0_21_27
*930 FILLER_0_21_273
*931 FILLER_0_21_279
*932 FILLER_0_21_281
*933 FILLER_0_21_293
*934 FILLER_0_21_3
*935 FILLER_0_21_305
*936 FILLER_0_21_317
*937 FILLER_0_21_329
*938 FILLER_0_21_39
*939 FILLER_0_21_51
*940 FILLER_0_21_55
*941 FILLER_0_21_57
*942 FILLER_0_22_100
*943 FILLER_0_22_114
*944 FILLER_0_22_122
*945 FILLER_0_22_130
*946 FILLER_0_22_138
*947 FILLER_0_22_141
*948 FILLER_0_22_15
*949 FILLER_0_22_150
*950 FILLER_0_22_167
*951 FILLER_0_22_175
*952 FILLER_0_22_192
*953 FILLER_0_22_204
*954 FILLER_0_22_216
*955 FILLER_0_22_228
*956 FILLER_0_22_240
*957 FILLER_0_22_253
*958 FILLER_0_22_265
*959 FILLER_0_22_27
*960 FILLER_0_22_277
*961 FILLER_0_22_289
*962 FILLER_0_22_29
*963 FILLER_0_22_3
*964 FILLER_0_22_301
*965 FILLER_0_22_307
*966 FILLER_0_22_309
*967 FILLER_0_22_321
*968 FILLER_0_22_333
*969 FILLER_0_22_36
*970 FILLER_0_22_48
*971 FILLER_0_22_56
*972 FILLER_0_22_77
*973 FILLER_0_22_83
*974 FILLER_0_22_85
*975 FILLER_0_23_105
*976 FILLER_0_23_111
*977 FILLER_0_23_113
*978 FILLER_0_23_121
*979 FILLER_0_23_130
*980 FILLER_0_23_141
*981 FILLER_0_23_145
*982 FILLER_0_23_15
*983 FILLER_0_23_160
*984 FILLER_0_23_169
*985 FILLER_0_23_182
*986 FILLER_0_23_194
*987 FILLER_0_23_206
*988 FILLER_0_23_218
*989 FILLER_0_23_225
*990 FILLER_0_23_237
*991 FILLER_0_23_249
*992 FILLER_0_23_261
*993 FILLER_0_23_273
*994 FILLER_0_23_279
*995 FILLER_0_23_281
*996 FILLER_0_23_293
*997 FILLER_0_23_3
*998 FILLER_0_23_305
*999 FILLER_0_23_317
*1000 FILLER_0_23_329
*1001 FILLER_0_23_39
*1002 FILLER_0_23_57
*1003 FILLER_0_23_65
*1004 FILLER_0_23_70
*1005 FILLER_0_23_78
*1006 FILLER_0_23_90
*1007 FILLER_0_24_113
*1008 FILLER_0_24_125
*1009 FILLER_0_24_137
*1010 FILLER_0_24_15
*1011 FILLER_0_24_155
*1012 FILLER_0_24_170
*1013 FILLER_0_24_189
*1014 FILLER_0_24_19
*1015 FILLER_0_24_212
*1016 FILLER_0_24_224
*1017 FILLER_0_24_236
*1018 FILLER_0_24_248
*1019 FILLER_0_24_253
*1020 FILLER_0_24_265
*1021 FILLER_0_24_277
*1022 FILLER_0_24_289
*1023 FILLER_0_24_29
*1024 FILLER_0_24_3
*1025 FILLER_0_24_301
*1026 FILLER_0_24_307
*1027 FILLER_0_24_309
*1028 FILLER_0_24_321
*1029 FILLER_0_24_333
*1030 FILLER_0_24_41
*1031 FILLER_0_24_77
*1032 FILLER_0_24_83
*1033 FILLER_0_25_100
*1034 FILLER_0_25_113
*1035 FILLER_0_25_133
*1036 FILLER_0_25_142
*1037 FILLER_0_25_148
*1038 FILLER_0_25_15
*1039 FILLER_0_25_158
*1040 FILLER_0_25_166
*1041 FILLER_0_25_177
*1042 FILLER_0_25_189
*1043 FILLER_0_25_201
*1044 FILLER_0_25_213
*1045 FILLER_0_25_22
*1046 FILLER_0_25_221
*1047 FILLER_0_25_225
*1048 FILLER_0_25_237
*1049 FILLER_0_25_249
*1050 FILLER_0_25_261
*1051 FILLER_0_25_273
*1052 FILLER_0_25_279
*1053 FILLER_0_25_28
*1054 FILLER_0_25_281
*1055 FILLER_0_25_293
*1056 FILLER_0_25_3
*1057 FILLER_0_25_305
*1058 FILLER_0_25_317
*1059 FILLER_0_25_329
*1060 FILLER_0_25_36
*1061 FILLER_0_25_44
*1062 FILLER_0_25_53
*1063 FILLER_0_25_57
*1064 FILLER_0_25_68
*1065 FILLER_0_26_101
*1066 FILLER_0_26_109
*1067 FILLER_0_26_11
*1068 FILLER_0_26_115
*1069 FILLER_0_26_126
*1070 FILLER_0_26_138
*1071 FILLER_0_26_149
*1072 FILLER_0_26_155
*1073 FILLER_0_26_164
*1074 FILLER_0_26_177
*1075 FILLER_0_26_186
*1076 FILLER_0_26_194
*1077 FILLER_0_26_204
*1078 FILLER_0_26_216
*1079 FILLER_0_26_228
*1080 FILLER_0_26_240
*1081 FILLER_0_26_25
*1082 FILLER_0_26_253
*1083 FILLER_0_26_265
*1084 FILLER_0_26_277
*1085 FILLER_0_26_289
*1086 FILLER_0_26_29
*1087 FILLER_0_26_3
*1088 FILLER_0_26_301
*1089 FILLER_0_26_307
*1090 FILLER_0_26_309
*1091 FILLER_0_26_321
*1092 FILLER_0_26_333
*1093 FILLER_0_26_36
*1094 FILLER_0_26_47
*1095 FILLER_0_26_53
*1096 FILLER_0_26_60
*1097 FILLER_0_26_66
*1098 FILLER_0_26_80
*1099 FILLER_0_26_85
*1100 FILLER_0_26_91
*1101 FILLER_0_27_110
*1102 FILLER_0_27_113
*1103 FILLER_0_27_124
*1104 FILLER_0_27_132
*1105 FILLER_0_27_144
*1106 FILLER_0_27_15
*1107 FILLER_0_27_152
*1108 FILLER_0_27_157
*1109 FILLER_0_27_165
*1110 FILLER_0_27_169
*1111 FILLER_0_27_176
*1112 FILLER_0_27_188
*1113 FILLER_0_27_212
*1114 FILLER_0_27_225
*1115 FILLER_0_27_237
*1116 FILLER_0_27_249
*1117 FILLER_0_27_261
*1118 FILLER_0_27_27
*1119 FILLER_0_27_273
*1120 FILLER_0_27_279
*1121 FILLER_0_27_281
*1122 FILLER_0_27_293
*1123 FILLER_0_27_3
*1124 FILLER_0_27_305
*1125 FILLER_0_27_317
*1126 FILLER_0_27_329
*1127 FILLER_0_27_43
*1128 FILLER_0_27_55
*1129 FILLER_0_27_63
*1130 FILLER_0_27_76
*1131 FILLER_0_27_88
*1132 FILLER_0_27_95
*1133 FILLER_0_27_99
*1134 FILLER_0_28_109
*1135 FILLER_0_28_116
*1136 FILLER_0_28_124
*1137 FILLER_0_28_128
*1138 FILLER_0_28_133
*1139 FILLER_0_28_139
*1140 FILLER_0_28_15
*1141 FILLER_0_28_161
*1142 FILLER_0_28_170
*1143 FILLER_0_28_187
*1144 FILLER_0_28_195
*1145 FILLER_0_28_197
*1146 FILLER_0_28_206
*1147 FILLER_0_28_218
*1148 FILLER_0_28_230
*1149 FILLER_0_28_240
*1150 FILLER_0_28_245
*1151 FILLER_0_28_251
*1152 FILLER_0_28_253
*1153 FILLER_0_28_265
*1154 FILLER_0_28_273
*1155 FILLER_0_28_280
*1156 FILLER_0_28_292
*1157 FILLER_0_28_3
*1158 FILLER_0_28_304
*1159 FILLER_0_28_309
*1160 FILLER_0_28_321
*1161 FILLER_0_28_333
*1162 FILLER_0_28_85
*1163 FILLER_0_28_97
*1164 FILLER_0_29_105
*1165 FILLER_0_29_111
*1166 FILLER_0_29_125
*1167 FILLER_0_29_137
*1168 FILLER_0_29_144
*1169 FILLER_0_29_156
*1170 FILLER_0_29_169
*1171 FILLER_0_29_194
*1172 FILLER_0_29_202
*1173 FILLER_0_29_213
*1174 FILLER_0_29_220
*1175 FILLER_0_29_23
*1176 FILLER_0_29_253
*1177 FILLER_0_29_257
*1178 FILLER_0_29_277
*1179 FILLER_0_29_289
*1180 FILLER_0_29_3
*1181 FILLER_0_29_301
*1182 FILLER_0_29_31
*1183 FILLER_0_29_313
*1184 FILLER_0_29_325
*1185 FILLER_0_29_333
*1186 FILLER_0_29_40
*1187 FILLER_0_29_52
*1188 FILLER_0_29_60
*1189 FILLER_0_29_64
*1190 FILLER_0_29_70
*1191 FILLER_0_29_77
*1192 FILLER_0_2_109
*1193 FILLER_0_2_121
*1194 FILLER_0_2_133
*1195 FILLER_0_2_139
*1196 FILLER_0_2_141
*1197 FILLER_0_2_15
*1198 FILLER_0_2_153
*1199 FILLER_0_2_165
*1200 FILLER_0_2_177
*1201 FILLER_0_2_189
*1202 FILLER_0_2_195
*1203 FILLER_0_2_197
*1204 FILLER_0_2_209
*1205 FILLER_0_2_221
*1206 FILLER_0_2_233
*1207 FILLER_0_2_245
*1208 FILLER_0_2_251
*1209 FILLER_0_2_253
*1210 FILLER_0_2_265
*1211 FILLER_0_2_27
*1212 FILLER_0_2_277
*1213 FILLER_0_2_289
*1214 FILLER_0_2_29
*1215 FILLER_0_2_3
*1216 FILLER_0_2_301
*1217 FILLER_0_2_307
*1218 FILLER_0_2_309
*1219 FILLER_0_2_321
*1220 FILLER_0_2_333
*1221 FILLER_0_2_41
*1222 FILLER_0_2_53
*1223 FILLER_0_2_65
*1224 FILLER_0_2_77
*1225 FILLER_0_2_83
*1226 FILLER_0_2_85
*1227 FILLER_0_2_97
*1228 FILLER_0_30_102
*1229 FILLER_0_30_118
*1230 FILLER_0_30_126
*1231 FILLER_0_30_134
*1232 FILLER_0_30_150
*1233 FILLER_0_30_171
*1234 FILLER_0_30_179
*1235 FILLER_0_30_187
*1236 FILLER_0_30_195
*1237 FILLER_0_30_217
*1238 FILLER_0_30_224
*1239 FILLER_0_30_236
*1240 FILLER_0_30_248
*1241 FILLER_0_30_253
*1242 FILLER_0_30_262
*1243 FILLER_0_30_274
*1244 FILLER_0_30_288
*1245 FILLER_0_30_29
*1246 FILLER_0_30_3
*1247 FILLER_0_30_305
*1248 FILLER_0_30_316
*1249 FILLER_0_30_328
*1250 FILLER_0_30_334
*1251 FILLER_0_30_34
*1252 FILLER_0_30_42
*1253 FILLER_0_30_57
*1254 FILLER_0_30_63
*1255 FILLER_0_30_77
*1256 FILLER_0_30_83
*1257 FILLER_0_30_85
*1258 FILLER_0_30_93
*1259 FILLER_0_31_109
*1260 FILLER_0_31_113
*1261 FILLER_0_31_131
*1262 FILLER_0_31_137
*1263 FILLER_0_31_143
*1264 FILLER_0_31_155
*1265 FILLER_0_31_167
*1266 FILLER_0_31_169
*1267 FILLER_0_31_177
*1268 FILLER_0_31_201
*1269 FILLER_0_31_21
*1270 FILLER_0_31_210
*1271 FILLER_0_31_221
*1272 FILLER_0_31_233
*1273 FILLER_0_31_237
*1274 FILLER_0_31_245
*1275 FILLER_0_31_267
*1276 FILLER_0_31_277
*1277 FILLER_0_31_281
*1278 FILLER_0_31_29
*1279 FILLER_0_31_293
*1280 FILLER_0_31_3
*1281 FILLER_0_31_305
*1282 FILLER_0_31_317
*1283 FILLER_0_31_329
*1284 FILLER_0_31_38
*1285 FILLER_0_31_51
*1286 FILLER_0_31_55
*1287 FILLER_0_31_57
*1288 FILLER_0_31_69
*1289 FILLER_0_31_81
*1290 FILLER_0_31_95
*1291 FILLER_0_32_107
*1292 FILLER_0_32_115
*1293 FILLER_0_32_123
*1294 FILLER_0_32_131
*1295 FILLER_0_32_164
*1296 FILLER_0_32_168
*1297 FILLER_0_32_176
*1298 FILLER_0_32_182
*1299 FILLER_0_32_194
*1300 FILLER_0_32_197
*1301 FILLER_0_32_206
*1302 FILLER_0_32_216
*1303 FILLER_0_32_224
*1304 FILLER_0_32_238
*1305 FILLER_0_32_246
*1306 FILLER_0_32_26
*1307 FILLER_0_32_261
*1308 FILLER_0_32_274
*1309 FILLER_0_32_293
*1310 FILLER_0_32_3
*1311 FILLER_0_32_305
*1312 FILLER_0_32_320
*1313 FILLER_0_32_332
*1314 FILLER_0_32_34
*1315 FILLER_0_32_42
*1316 FILLER_0_32_47
*1317 FILLER_0_32_64
*1318 FILLER_0_32_80
*1319 FILLER_0_32_9
*1320 FILLER_0_32_98
*1321 FILLER_0_33_110
*1322 FILLER_0_33_116
*1323 FILLER_0_33_121
*1324 FILLER_0_33_137
*1325 FILLER_0_33_142
*1326 FILLER_0_33_147
*1327 FILLER_0_33_15
*1328 FILLER_0_33_159
*1329 FILLER_0_33_167
*1330 FILLER_0_33_180
*1331 FILLER_0_33_189
*1332 FILLER_0_33_199
*1333 FILLER_0_33_211
*1334 FILLER_0_33_217
*1335 FILLER_0_33_225
*1336 FILLER_0_33_23
*1337 FILLER_0_33_250
*1338 FILLER_0_33_258
*1339 FILLER_0_33_272
*1340 FILLER_0_33_281
*1341 FILLER_0_33_287
*1342 FILLER_0_33_293
*1343 FILLER_0_33_3
*1344 FILLER_0_33_317
*1345 FILLER_0_33_329
*1346 FILLER_0_33_39
*1347 FILLER_0_33_45
*1348 FILLER_0_33_60
*1349 FILLER_0_33_81
*1350 FILLER_0_33_85
*1351 FILLER_0_33_98
*1352 FILLER_0_34_115
*1353 FILLER_0_34_132
*1354 FILLER_0_34_141
*1355 FILLER_0_34_149
*1356 FILLER_0_34_15
*1357 FILLER_0_34_156
*1358 FILLER_0_34_168
*1359 FILLER_0_34_182
*1360 FILLER_0_34_188
*1361 FILLER_0_34_195
*1362 FILLER_0_34_203
*1363 FILLER_0_34_220
*1364 FILLER_0_34_228
*1365 FILLER_0_34_240
*1366 FILLER_0_34_248
*1367 FILLER_0_34_253
*1368 FILLER_0_34_257
*1369 FILLER_0_34_27
*1370 FILLER_0_34_279
*1371 FILLER_0_34_291
*1372 FILLER_0_34_3
*1373 FILLER_0_34_306
*1374 FILLER_0_34_312
*1375 FILLER_0_34_323
*1376 FILLER_0_34_35
*1377 FILLER_0_34_39
*1378 FILLER_0_34_43
*1379 FILLER_0_34_62
*1380 FILLER_0_34_69
*1381 FILLER_0_34_73
*1382 FILLER_0_34_77
*1383 FILLER_0_34_83
*1384 FILLER_0_34_85
*1385 FILLER_0_34_97
*1386 FILLER_0_35_101
*1387 FILLER_0_35_109
*1388 FILLER_0_35_120
*1389 FILLER_0_35_124
*1390 FILLER_0_35_139
*1391 FILLER_0_35_15
*1392 FILLER_0_35_154
*1393 FILLER_0_35_176
*1394 FILLER_0_35_184
*1395 FILLER_0_35_195
*1396 FILLER_0_35_207
*1397 FILLER_0_35_222
*1398 FILLER_0_35_225
*1399 FILLER_0_35_237
*1400 FILLER_0_35_241
*1401 FILLER_0_35_250
*1402 FILLER_0_35_262
*1403 FILLER_0_35_274
*1404 FILLER_0_35_296
*1405 FILLER_0_35_3
*1406 FILLER_0_35_301
*1407 FILLER_0_35_313
*1408 FILLER_0_35_46
*1409 FILLER_0_35_55
*1410 FILLER_0_35_60
*1411 FILLER_0_35_72
*1412 FILLER_0_35_84
*1413 FILLER_0_35_89
*1414 FILLER_0_36_105
*1415 FILLER_0_36_115
*1416 FILLER_0_36_123
*1417 FILLER_0_36_138
*1418 FILLER_0_36_149
*1419 FILLER_0_36_15
*1420 FILLER_0_36_159
*1421 FILLER_0_36_168
*1422 FILLER_0_36_174
*1423 FILLER_0_36_211
*1424 FILLER_0_36_230
*1425 FILLER_0_36_236
*1426 FILLER_0_36_245
*1427 FILLER_0_36_253
*1428 FILLER_0_36_27
*1429 FILLER_0_36_274
*1430 FILLER_0_36_285
*1431 FILLER_0_36_29
*1432 FILLER_0_36_291
*1433 FILLER_0_36_295
*1434 FILLER_0_36_3
*1435 FILLER_0_36_305
*1436 FILLER_0_36_309
*1437 FILLER_0_36_320
*1438 FILLER_0_36_325
*1439 FILLER_0_36_333
*1440 FILLER_0_36_35
*1441 FILLER_0_36_47
*1442 FILLER_0_36_68
*1443 FILLER_0_36_79
*1444 FILLER_0_36_83
*1445 FILLER_0_36_85
*1446 FILLER_0_36_97
*1447 FILLER_0_37_107
*1448 FILLER_0_37_111
*1449 FILLER_0_37_113
*1450 FILLER_0_37_120
*1451 FILLER_0_37_142
*1452 FILLER_0_37_15
*1453 FILLER_0_37_154
*1454 FILLER_0_37_166
*1455 FILLER_0_37_169
*1456 FILLER_0_37_222
*1457 FILLER_0_37_225
*1458 FILLER_0_37_278
*1459 FILLER_0_37_294
*1460 FILLER_0_37_3
*1461 FILLER_0_37_311
*1462 FILLER_0_37_334
*1463 FILLER_0_37_46
*1464 FILLER_0_37_54
*1465 FILLER_0_37_57
*1466 FILLER_0_38_10
*1467 FILLER_0_38_102
*1468 FILLER_0_38_118
*1469 FILLER_0_38_14
*1470 FILLER_0_38_141
*1471 FILLER_0_38_145
*1472 FILLER_0_38_165
*1473 FILLER_0_38_18
*1474 FILLER_0_38_188
*1475 FILLER_0_38_202
*1476 FILLER_0_38_22
*1477 FILLER_0_38_225
*1478 FILLER_0_38_274
*1479 FILLER_0_38_289
*1480 FILLER_0_38_295
*1481 FILLER_0_38_305
*1482 FILLER_0_38_32
*1483 FILLER_0_38_326
*1484 FILLER_0_38_334
*1485 FILLER_0_38_38
*1486 FILLER_0_38_42
*1487 FILLER_0_38_46
*1488 FILLER_0_38_50
*1489 FILLER_0_38_54
*1490 FILLER_0_38_57
*1491 FILLER_0_38_6
*1492 FILLER_0_38_62
*1493 FILLER_0_38_66
*1494 FILLER_0_38_70
*1495 FILLER_0_38_74
*1496 FILLER_0_38_78
*1497 FILLER_0_38_88
*1498 FILLER_0_38_94
*1499 FILLER_0_38_98
*1500 FILLER_0_3_105
*1501 FILLER_0_3_111
*1502 FILLER_0_3_113
*1503 FILLER_0_3_125
*1504 FILLER_0_3_137
*1505 FILLER_0_3_149
*1506 FILLER_0_3_15
*1507 FILLER_0_3_161
*1508 FILLER_0_3_167
*1509 FILLER_0_3_169
*1510 FILLER_0_3_181
*1511 FILLER_0_3_193
*1512 FILLER_0_3_205
*1513 FILLER_0_3_217
*1514 FILLER_0_3_223
*1515 FILLER_0_3_225
*1516 FILLER_0_3_237
*1517 FILLER_0_3_249
*1518 FILLER_0_3_261
*1519 FILLER_0_3_27
*1520 FILLER_0_3_273
*1521 FILLER_0_3_279
*1522 FILLER_0_3_281
*1523 FILLER_0_3_293
*1524 FILLER_0_3_3
*1525 FILLER_0_3_305
*1526 FILLER_0_3_317
*1527 FILLER_0_3_329
*1528 FILLER_0_3_39
*1529 FILLER_0_3_51
*1530 FILLER_0_3_55
*1531 FILLER_0_3_57
*1532 FILLER_0_3_69
*1533 FILLER_0_3_81
*1534 FILLER_0_3_93
*1535 FILLER_0_4_109
*1536 FILLER_0_4_121
*1537 FILLER_0_4_133
*1538 FILLER_0_4_139
*1539 FILLER_0_4_141
*1540 FILLER_0_4_15
*1541 FILLER_0_4_153
*1542 FILLER_0_4_165
*1543 FILLER_0_4_177
*1544 FILLER_0_4_189
*1545 FILLER_0_4_195
*1546 FILLER_0_4_197
*1547 FILLER_0_4_209
*1548 FILLER_0_4_221
*1549 FILLER_0_4_233
*1550 FILLER_0_4_245
*1551 FILLER_0_4_251
*1552 FILLER_0_4_253
*1553 FILLER_0_4_265
*1554 FILLER_0_4_27
*1555 FILLER_0_4_277
*1556 FILLER_0_4_289
*1557 FILLER_0_4_29
*1558 FILLER_0_4_3
*1559 FILLER_0_4_301
*1560 FILLER_0_4_307
*1561 FILLER_0_4_309
*1562 FILLER_0_4_321
*1563 FILLER_0_4_333
*1564 FILLER_0_4_41
*1565 FILLER_0_4_53
*1566 FILLER_0_4_65
*1567 FILLER_0_4_77
*1568 FILLER_0_4_83
*1569 FILLER_0_4_85
*1570 FILLER_0_4_97
*1571 FILLER_0_5_105
*1572 FILLER_0_5_111
*1573 FILLER_0_5_113
*1574 FILLER_0_5_125
*1575 FILLER_0_5_137
*1576 FILLER_0_5_149
*1577 FILLER_0_5_15
*1578 FILLER_0_5_161
*1579 FILLER_0_5_167
*1580 FILLER_0_5_169
*1581 FILLER_0_5_181
*1582 FILLER_0_5_193
*1583 FILLER_0_5_205
*1584 FILLER_0_5_217
*1585 FILLER_0_5_223
*1586 FILLER_0_5_225
*1587 FILLER_0_5_237
*1588 FILLER_0_5_249
*1589 FILLER_0_5_261
*1590 FILLER_0_5_27
*1591 FILLER_0_5_273
*1592 FILLER_0_5_279
*1593 FILLER_0_5_281
*1594 FILLER_0_5_293
*1595 FILLER_0_5_3
*1596 FILLER_0_5_305
*1597 FILLER_0_5_317
*1598 FILLER_0_5_329
*1599 FILLER_0_5_39
*1600 FILLER_0_5_51
*1601 FILLER_0_5_55
*1602 FILLER_0_5_57
*1603 FILLER_0_5_69
*1604 FILLER_0_5_81
*1605 FILLER_0_5_93
*1606 FILLER_0_6_109
*1607 FILLER_0_6_121
*1608 FILLER_0_6_133
*1609 FILLER_0_6_139
*1610 FILLER_0_6_141
*1611 FILLER_0_6_15
*1612 FILLER_0_6_153
*1613 FILLER_0_6_165
*1614 FILLER_0_6_177
*1615 FILLER_0_6_189
*1616 FILLER_0_6_195
*1617 FILLER_0_6_197
*1618 FILLER_0_6_209
*1619 FILLER_0_6_221
*1620 FILLER_0_6_233
*1621 FILLER_0_6_245
*1622 FILLER_0_6_251
*1623 FILLER_0_6_253
*1624 FILLER_0_6_265
*1625 FILLER_0_6_27