*SPEF "ieee 1481-1999"
*DESIGN "tt_um_PUF"
*DATE "13:42:45 Thursday May 09, 2024"
*VENDOR "The OpenROAD Project"
*PROGRAM "OpenROAD"
*VERSION "da0053d7b0014ab9c87ea148875ff6c2a0f9b658"
*DESIGN_FLOW "NAME_SCOPE LOCAL" "PIN_CAP NONE"
*DIVIDER /
*DELIMITER :
*BUS_DELIMITER []
*T_UNIT 1 NS
*C_UNIT 1 PF
*R_UNIT 1 OHM
*L_UNIT 1 HENRY

*NAME_MAP
*3 clk
*4 ena
*5 rst_n
*6 ui_in[0]
*7 ui_in[1]
*8 ui_in[2]
*9 ui_in[3]
*10 ui_in[4]
*11 ui_in[5]
*12 ui_in[6]
*13 ui_in[7]
*14 uio_in[0]
*15 uio_in[1]
*16 uio_in[2]
*17 uio_in[3]
*18 uio_in[4]
*19 uio_in[5]
*20 uio_in[6]
*21 uio_in[7]
*22 net16
*23 net17
*24 net18
*25 net19
*26 net20
*27 net21
*28 net22
*29 net23
*30 net8
*31 net9
*32 net10
*33 net11
*34 net12
*35 net13
*36 net14
*37 net15
*38 uo_out[0]
*39 uo_out[1]
*40 uo_out[2]
*41 uo_out[3]
*42 uo_out[4]
*43 uo_out[5]
*44 uo_out[6]
*45 uo_out[7]
*46 _000_
*47 _001_
*48 _002_
*49 _003_
*50 _004_
*51 _005_
*52 _006_
*53 _007_
*54 _008_
*55 _009_
*56 _010_
*57 _011_
*58 _012_
*59 _013_
*60 _014_
*61 _015_
*62 _016_
*63 _017_
*64 _018_
*65 _019_
*66 _020_
*67 _021_
*68 _022_
*69 _023_
*70 _024_
*71 _025_
*72 _026_
*73 _027_
*74 _028_
*75 _029_
*76 _030_
*77 _031_
*78 _032_
*79 _033_
*80 _034_
*81 _035_
*82 _036_
*83 _037_
*84 _038_
*85 _039_
*86 _040_
*87 _041_
*88 _042_
*89 _043_
*90 _044_
*91 _045_
*92 _046_
*93 _047_
*94 _048_
*95 _049_
*96 _050_
*97 _051_
*98 _052_
*99 _053_
*100 _054_
*101 _055_
*102 _056_
*103 _057_
*104 _058_
*105 _059_
*106 _060_
*107 _061_
*108 _062_
*109 _063_
*110 _064_
*111 _065_
*112 _066_
*113 _067_
*114 _068_
*115 _069_
*116 _070_
*117 _071_
*118 _072_
*119 _073_
*120 _074_
*121 _075_
*122 _076_
*123 _077_
*124 _078_
*125 _079_
*126 _080_
*127 _081_
*128 _082_
*129 _083_
*130 _084_
*131 _085_
*132 _086_
*133 _087_
*134 _088_
*135 _089_
*136 _090_
*137 _091_
*138 _092_
*139 _093_
*140 _094_
*141 _095_
*142 _096_
*143 _097_
*144 _098_
*145 _099_
*146 _100_
*147 _101_
*148 _102_
*149 _103_
*150 _104_
*151 _105_
*152 _106_
*153 _107_
*154 _108_
*155 _109_
*156 _110_
*157 _111_
*158 _112_
*159 _113_
*160 _114_
*161 _115_
*162 _116_
*163 _117_
*164 _118_
*165 _119_
*166 _120_
*167 _121_
*168 _122_
*169 _123_
*170 _124_
*171 _125_
*172 _126_
*173 _127_
*174 _128_
*175 _129_
*176 _130_
*177 _131_
*178 _132_
*179 _133_
*180 _134_
*181 _135_
*182 _136_
*183 _137_
*184 _138_
*185 _139_
*186 _140_
*187 _141_
*188 _142_
*189 _143_
*190 _144_
*191 _145_
*192 _146_
*193 _147_
*194 _148_
*195 _149_
*196 _150_
*197 _151_
*198 _152_
*199 _153_
*200 _154_
*201 _155_
*202 _156_
*203 _157_
*204 _158_
*205 _159_
*206 _160_
*207 _161_
*208 _162_
*209 _163_
*210 _164_
*211 _165_
*212 _166_
*213 _167_
*214 _168_
*215 _169_
*216 _170_
*217 _171_
*218 _172_
*219 _173_
*220 _174_
*221 _175_
*222 _176_
*223 _177_
*224 _178_
*225 _179_
*226 _180_
*227 _181_
*228 _182_
*229 _183_
*230 _184_
*231 _185_
*232 _186_
*233 _187_
*234 _188_
*235 _189_
*236 _190_
*237 _191_
*238 _192_
*239 _193_
*240 _194_
*241 _195_
*242 _196_
*243 _197_
*244 _198_
*245 _199_
*246 _200_
*247 _201_
*248 _202_
*249 _203_
*250 _204_
*251 _205_
*252 _206_
*253 _207_
*254 _208_
*255 _209_
*256 _210_
*257 _211_
*258 _212_
*259 _213_
*260 _214_
*261 _215_
*262 _216_
*263 _217_
*264 _218_
*265 _219_
*266 _220_
*267 _221_
*268 _222_
*269 _223_
*270 _224_
*271 _225_
*272 _226_
*273 _227_
*274 _228_
*275 _229_
*276 _230_
*277 _231_
*278 _232_
*279 _233_
*280 _234_
*281 _235_
*282 _236_
*283 _237_
*284 net1
*285 net2
*286 net3
*287 net4
*288 net5
*289 net6
*290 net7
*291 uut1\.c\.count\[0\]
*292 uut1\.c\.count\[1\]
*293 uut1\.c\.count\[2\]
*294 uut1\.c\.count\[3\]
*295 uut1\.c\.count\[4\]
*296 uut1\.c\.count\[5\]
*297 uut1\.c\.count\[6\]
*298 uut1\.c\.count\[7\]
*299 uut1\.c\.m_out
*300 uut1\.genblk1\[0\]\.f0\.A
*301 uut1\.genblk1\[10\]\.f0\.A
*302 uut1\.genblk1\[11\]\.f0\.A
*303 uut1\.genblk1\[12\]\.f0\.A
*304 uut1\.genblk1\[13\]\.f0\.A
*305 uut1\.genblk1\[14\]\.f0\.A
*306 uut1\.genblk1\[15\]\.f0\.A
*307 uut1\.genblk1\[16\]\.f0\.A
*308 uut1\.genblk1\[17\]\.f0\.A
*309 uut1\.genblk1\[18\]\.f0\.A
*310 uut1\.genblk1\[19\]\.f0\.A
*311 uut1\.genblk1\[1\]\.f0\.A
*312 uut1\.genblk1\[20\]\.f0\.A
*313 uut1\.genblk1\[21\]\.f0\.A
*314 uut1\.genblk1\[22\]\.f0\.A
*315 uut1\.genblk1\[23\]\.f0\.A
*316 uut1\.genblk1\[24\]\.f0\.A
*317 uut1\.genblk1\[25\]\.f0\.A
*318 uut1\.genblk1\[26\]\.f0\.A
*319 uut1\.genblk1\[27\]\.f0\.A
*320 uut1\.genblk1\[28\]\.f0\.A
*321 uut1\.genblk1\[29\]\.f0\.A
*322 uut1\.genblk1\[2\]\.f0\.A
*323 uut1\.genblk1\[30\]\.f0\.A
*324 uut1\.genblk1\[31\]\.f0\.A
*325 uut1\.genblk1\[3\]\.f0\.A
*326 uut1\.genblk1\[4\]\.f0\.A
*327 uut1\.genblk1\[5\]\.f0\.A
*328 uut1\.genblk1\[6\]\.f0\.A
*329 uut1\.genblk1\[7\]\.f0\.A
*330 uut1\.genblk1\[8\]\.f0\.A
*331 uut1\.genblk1\[9\]\.f0\.A
*332 uut2\.c\.count\[0\]
*333 uut2\.c\.count\[1\]
*334 uut2\.c\.count\[2\]
*335 uut2\.c\.count\[3\]
*336 uut2\.c\.count\[4\]
*337 uut2\.c\.count\[5\]
*338 uut2\.c\.count\[6\]
*339 uut2\.c\.count\[7\]
*340 uut2\.c\.m_out
*341 uut2\.genblk1\[0\]\.f0\.A
*342 uut2\.genblk1\[10\]\.f0\.A
*343 uut2\.genblk1\[11\]\.f0\.A
*344 uut2\.genblk1\[12\]\.f0\.A
*345 uut2\.genblk1\[13\]\.f0\.A
*346 uut2\.genblk1\[14\]\.f0\.A
*347 uut2\.genblk1\[15\]\.f0\.A
*348 uut2\.genblk1\[16\]\.f0\.A
*349 uut2\.genblk1\[17\]\.f0\.A
*350 uut2\.genblk1\[18\]\.f0\.A
*351 uut2\.genblk1\[19\]\.f0\.A
*352 uut2\.genblk1\[1\]\.f0\.A
*353 uut2\.genblk1\[20\]\.f0\.A
*354 uut2\.genblk1\[21\]\.f0\.A
*355 uut2\.genblk1\[22\]\.f0\.A
*356 uut2\.genblk1\[23\]\.f0\.A
*357 uut2\.genblk1\[24\]\.f0\.A
*358 uut2\.genblk1\[25\]\.f0\.A
*359 uut2\.genblk1\[26\]\.f0\.A
*360 uut2\.genblk1\[27\]\.f0\.A
*361 uut2\.genblk1\[28\]\.f0\.A
*362 uut2\.genblk1\[29\]\.f0\.A
*363 uut2\.genblk1\[2\]\.f0\.A
*364 uut2\.genblk1\[30\]\.f0\.A
*365 uut2\.genblk1\[31\]\.f0\.A
*366 uut2\.genblk1\[3\]\.f0\.A
*367 uut2\.genblk1\[4\]\.f0\.A
*368 uut2\.genblk1\[5\]\.f0\.A
*369 uut2\.genblk1\[6\]\.f0\.A
*370 uut2\.genblk1\[7\]\.f0\.A
*371 uut2\.genblk1\[8\]\.f0\.A
*372 uut2\.genblk1\[9\]\.f0\.A
*373 FILLER_0_0_109
*374 FILLER_0_0_113
*375 FILLER_0_0_125
*376 FILLER_0_0_137
*377 FILLER_0_0_141
*378 FILLER_0_0_15
*379 FILLER_0_0_153
*380 FILLER_0_0_165
*381 FILLER_0_0_169
*382 FILLER_0_0_181
*383 FILLER_0_0_193
*384 FILLER_0_0_197
*385 FILLER_0_0_209
*386 FILLER_0_0_221
*387 FILLER_0_0_225
*388 FILLER_0_0_237
*389 FILLER_0_0_249
*390 FILLER_0_0_253
*391 FILLER_0_0_265
*392 FILLER_0_0_27
*393 FILLER_0_0_277
*394 FILLER_0_0_281
*395 FILLER_0_0_29
*396 FILLER_0_0_293
*397 FILLER_0_0_3
*398 FILLER_0_0_305
*399 FILLER_0_0_309
*400 FILLER_0_0_321
*401 FILLER_0_0_333
*402 FILLER_0_0_41
*403 FILLER_0_0_53
*404 FILLER_0_0_57
*405 FILLER_0_0_69
*406 FILLER_0_0_81
*407 FILLER_0_0_85
*408 FILLER_0_0_97
*409 FILLER_0_10_109
*410 FILLER_0_10_121
*411 FILLER_0_10_133
*412 FILLER_0_10_139
*413 FILLER_0_10_141
*414 FILLER_0_10_15
*415 FILLER_0_10_153
*416 FILLER_0_10_165
*417 FILLER_0_10_177
*418 FILLER_0_10_189
*419 FILLER_0_10_195
*420 FILLER_0_10_197
*421 FILLER_0_10_209
*422 FILLER_0_10_221
*423 FILLER_0_10_233
*424 FILLER_0_10_245
*425 FILLER_0_10_251
*426 FILLER_0_10_253
*427 FILLER_0_10_265
*428 FILLER_0_10_27
*429 FILLER_0_10_277
*430 FILLER_0_10_289
*431 FILLER_0_10_29
*432 FILLER_0_10_3
*433 FILLER_0_10_301
*434 FILLER_0_10_307
*435 FILLER_0_10_309
*436 FILLER_0_10_321
*437 FILLER_0_10_333
*438 FILLER_0_10_41
*439 FILLER_0_10_53
*440 FILLER_0_10_65
*441 FILLER_0_10_77
*442 FILLER_0_10_83
*443 FILLER_0_10_85
*444 FILLER_0_10_97
*445 FILLER_0_11_105
*446 FILLER_0_11_111
*447 FILLER_0_11_113
*448 FILLER_0_11_125
*449 FILLER_0_11_137
*450 FILLER_0_11_149
*451 FILLER_0_11_15
*452 FILLER_0_11_161
*453 FILLER_0_11_167
*454 FILLER_0_11_169
*455 FILLER_0_11_181
*456 FILLER_0_11_193
*457 FILLER_0_11_205
*458 FILLER_0_11_217
*459 FILLER_0_11_223
*460 FILLER_0_11_225
*461 FILLER_0_11_237
*462 FILLER_0_11_249
*463 FILLER_0_11_261
*464 FILLER_0_11_27
*465 FILLER_0_11_273
*466 FILLER_0_11_279
*467 FILLER_0_11_281
*468 FILLER_0_11_293
*469 FILLER_0_11_3
*470 FILLER_0_11_305
*471 FILLER_0_11_317
*472 FILLER_0_11_329
*473 FILLER_0_11_39
*474 FILLER_0_11_51
*475 FILLER_0_11_55
*476 FILLER_0_11_57
*477 FILLER_0_11_69
*478 FILLER_0_11_81
*479 FILLER_0_11_93
*480 FILLER_0_12_109
*481 FILLER_0_12_121
*482 FILLER_0_12_133
*483 FILLER_0_12_139
*484 FILLER_0_12_141
*485 FILLER_0_12_15
*486 FILLER_0_12_153
*487 FILLER_0_12_165
*488 FILLER_0_12_177
*489 FILLER_0_12_189
*490 FILLER_0_12_195
*491 FILLER_0_12_197
*492 FILLER_0_12_209
*493 FILLER_0_12_221
*494 FILLER_0_12_233
*495 FILLER_0_12_245
*496 FILLER_0_12_251
*497 FILLER_0_12_253
*498 FILLER_0_12_265
*499 FILLER_0_12_27
*500 FILLER_0_12_277
*501 FILLER_0_12_289
*502 FILLER_0_12_29
*503 FILLER_0_12_3
*504 FILLER_0_12_301
*505 FILLER_0_12_307
*506 FILLER_0_12_309
*507 FILLER_0_12_321
*508 FILLER_0_12_333
*509 FILLER_0_12_41
*510 FILLER_0_12_53
*511 FILLER_0_12_65
*512 FILLER_0_12_77
*513 FILLER_0_12_83
*514 FILLER_0_12_85
*515 FILLER_0_12_97
*516 FILLER_0_13_105
*517 FILLER_0_13_111
*518 FILLER_0_13_113
*519 FILLER_0_13_125
*520 FILLER_0_13_137
*521 FILLER_0_13_149
*522 FILLER_0_13_15
*523 FILLER_0_13_161
*524 FILLER_0_13_167
*525 FILLER_0_13_169
*526 FILLER_0_13_181
*527 FILLER_0_13_193
*528 FILLER_0_13_205
*529 FILLER_0_13_217
*530 FILLER_0_13_223
*531 FILLER_0_13_225
*532 FILLER_0_13_237
*533 FILLER_0_13_249
*534 FILLER_0_13_261
*535 FILLER_0_13_27
*536 FILLER_0_13_273
*537 FILLER_0_13_279
*538 FILLER_0_13_281
*539 FILLER_0_13_293
*540 FILLER_0_13_3
*541 FILLER_0_13_305
*542 FILLER_0_13_317
*543 FILLER_0_13_329
*544 FILLER_0_13_39
*545 FILLER_0_13_51
*546 FILLER_0_13_55
*547 FILLER_0_13_57
*548 FILLER_0_13_69
*549 FILLER_0_13_81
*550 FILLER_0_13_93
*551 FILLER_0_14_109
*552 FILLER_0_14_121
*553 FILLER_0_14_133
*554 FILLER_0_14_139
*555 FILLER_0_14_141
*556 FILLER_0_14_15
*557 FILLER_0_14_153
*558 FILLER_0_14_165
*559 FILLER_0_14_177
*560 FILLER_0_14_189
*561 FILLER_0_14_195
*562 FILLER_0_14_197
*563 FILLER_0_14_209
*564 FILLER_0_14_221
*565 FILLER_0_14_233
*566 FILLER_0_14_245
*567 FILLER_0_14_251
*568 FILLER_0_14_253
*569 FILLER_0_14_265
*570 FILLER_0_14_27
*571 FILLER_0_14_277
*572 FILLER_0_14_289
*573 FILLER_0_14_29
*574 FILLER_0_14_3
*575 FILLER_0_14_301
*576 FILLER_0_14_307
*577 FILLER_0_14_309
*578 FILLER_0_14_321
*579 FILLER_0_14_333
*580 FILLER_0_14_41
*581 FILLER_0_14_53
*582 FILLER_0_14_65
*583 FILLER_0_14_77
*584 FILLER_0_14_83
*585 FILLER_0_14_85
*586 FILLER_0_14_97
*587 FILLER_0_15_105
*588 FILLER_0_15_111
*589 FILLER_0_15_113
*590 FILLER_0_15_125
*591 FILLER_0_15_137
*592 FILLER_0_15_149
*593 FILLER_0_15_15
*594 FILLER_0_15_161
*595 FILLER_0_15_167
*596 FILLER_0_15_169
*597 FILLER_0_15_181
*598 FILLER_0_15_193
*599 FILLER_0_15_205
*600 FILLER_0_15_217
*601 FILLER_0_15_223
*602 FILLER_0_15_225
*603 FILLER_0_15_237
*604 FILLER_0_15_249
*605 FILLER_0_15_261
*606 FILLER_0_15_27
*607 FILLER_0_15_273
*608 FILLER_0_15_279
*609 FILLER_0_15_281
*610 FILLER_0_15_293
*611 FILLER_0_15_3
*612 FILLER_0_15_305
*613 FILLER_0_15_317
*614 FILLER_0_15_329
*615 FILLER_0_15_39
*616 FILLER_0_15_51
*617 FILLER_0_15_55
*618 FILLER_0_15_57
*619 FILLER_0_15_69
*620 FILLER_0_15_81
*621 FILLER_0_15_93
*622 FILLER_0_16_109
*623 FILLER_0_16_121
*624 FILLER_0_16_133
*625 FILLER_0_16_139
*626 FILLER_0_16_141
*627 FILLER_0_16_15
*628 FILLER_0_16_153
*629 FILLER_0_16_165
*630 FILLER_0_16_177
*631 FILLER_0_16_189
*632 FILLER_0_16_195
*633 FILLER_0_16_197
*634 FILLER_0_16_209
*635 FILLER_0_16_221
*636 FILLER_0_16_233
*637 FILLER_0_16_245
*638 FILLER_0_16_251
*639 FILLER_0_16_253
*640 FILLER_0_16_265
*641 FILLER_0_16_27
*642 FILLER_0_16_277
*643 FILLER_0_16_289
*644 FILLER_0_16_29
*645 FILLER_0_16_3
*646 FILLER_0_16_301
*647 FILLER_0_16_307
*648 FILLER_0_16_309
*649 FILLER_0_16_321
*650 FILLER_0_16_333
*651 FILLER_0_16_41
*652 FILLER_0_16_53
*653 FILLER_0_16_65
*654 FILLER_0_16_77
*655 FILLER_0_16_83
*656 FILLER_0_16_85
*657 FILLER_0_16_97
*658 FILLER_0_17_105
*659 FILLER_0_17_111
*660 FILLER_0_17_113
*661 FILLER_0_17_125
*662 FILLER_0_17_137
*663 FILLER_0_17_149
*664 FILLER_0_17_15
*665 FILLER_0_17_161
*666 FILLER_0_17_167
*667 FILLER_0_17_169
*668 FILLER_0_17_181
*669 FILLER_0_17_193
*670 FILLER_0_17_205
*671 FILLER_0_17_217
*672 FILLER_0_17_223
*673 FILLER_0_17_225
*674 FILLER_0_17_237
*675 FILLER_0_17_249
*676 FILLER_0_17_261
*677 FILLER_0_17_27
*678 FILLER_0_17_273
*679 FILLER_0_17_279
*680 FILLER_0_17_281
*681 FILLER_0_17_293
*682 FILLER_0_17_3
*683 FILLER_0_17_305
*684 FILLER_0_17_317
*685 FILLER_0_17_329
*686 FILLER_0_17_39
*687 FILLER_0_17_51
*688 FILLER_0_17_55
*689 FILLER_0_17_57
*690 FILLER_0_17_69
*691 FILLER_0_17_81
*692 FILLER_0_17_93
*693 FILLER_0_18_109
*694 FILLER_0_18_121
*695 FILLER_0_18_133
*696 FILLER_0_18_139
*697 FILLER_0_18_141
*698 FILLER_0_18_15
*699 FILLER_0_18_153
*700 FILLER_0_18_165
*701 FILLER_0_18_177
*702 FILLER_0_18_189
*703 FILLER_0_18_195
*704 FILLER_0_18_197
*705 FILLER_0_18_209
*706 FILLER_0_18_221
*707 FILLER_0_18_233
*708 FILLER_0_18_245
*709 FILLER_0_18_251
*710 FILLER_0_18_253
*711 FILLER_0_18_265
*712 FILLER_0_18_27
*713 FILLER_0_18_277
*714 FILLER_0_18_289
*715 FILLER_0_18_29
*716 FILLER_0_18_3
*717 FILLER_0_18_301
*718 FILLER_0_18_307
*719 FILLER_0_18_309
*720 FILLER_0_18_321
*721 FILLER_0_18_333
*722 FILLER_0_18_41
*723 FILLER_0_18_53
*724 FILLER_0_18_65
*725 FILLER_0_18_77
*726 FILLER_0_18_83
*727 FILLER_0_18_85
*728 FILLER_0_18_97
*729 FILLER_0_19_105
*730 FILLER_0_19_111
*731 FILLER_0_19_113
*732 FILLER_0_19_125
*733 FILLER_0_19_137
*734 FILLER_0_19_149
*735 FILLER_0_19_15
*736 FILLER_0_19_161
*737 FILLER_0_19_167
*738 FILLER_0_19_169
*739 FILLER_0_19_181
*740 FILLER_0_19_193
*741 FILLER_0_19_205
*742 FILLER_0_19_217
*743 FILLER_0_19_223
*744 FILLER_0_19_225
*745 FILLER_0_19_237
*746 FILLER_0_19_249
*747 FILLER_0_19_261
*748 FILLER_0_19_27
*749 FILLER_0_19_273
*750 FILLER_0_19_279
*751 FILLER_0_19_281
*752 FILLER_0_19_293
*753 FILLER_0_19_3
*754 FILLER_0_19_305
*755 FILLER_0_19_317
*756 FILLER_0_19_329
*757 FILLER_0_19_39
*758 FILLER_0_19_51
*759 FILLER_0_19_55
*760 FILLER_0_19_57
*761 FILLER_0_19_69
*762 FILLER_0_19_81
*763 FILLER_0_19_93
*764 FILLER_0_1_105
*765 FILLER_0_1_111
*766 FILLER_0_1_113
*767 FILLER_0_1_125
*768 FILLER_0_1_137
*769 FILLER_0_1_149
*770 FILLER_0_1_15
*771 FILLER_0_1_161
*772 FILLER_0_1_167
*773 FILLER_0_1_169
*774 FILLER_0_1_181
*775 FILLER_0_1_193
*776 FILLER_0_1_205
*777 FILLER_0_1_217
*778 FILLER_0_1_223
*779 FILLER_0_1_225
*780 FILLER_0_1_237
*781 FILLER_0_1_249
*782 FILLER_0_1_261
*783 FILLER_0_1_27
*784 FILLER_0_1_273
*785 FILLER_0_1_279
*786 FILLER_0_1_281
*787 FILLER_0_1_293
*788 FILLER_0_1_3
*789 FILLER_0_1_305
*790 FILLER_0_1_317
*791 FILLER_0_1_329
*792 FILLER_0_1_39
*793 FILLER_0_1_51
*794 FILLER_0_1_55
*795 FILLER_0_1_57
*796 FILLER_0_1_69
*797 FILLER_0_1_81
*798 FILLER_0_1_93
*799 FILLER_0_20_109
*800 FILLER_0_20_121
*801 FILLER_0_20_133
*802 FILLER_0_20_139
*803 FILLER_0_20_141
*804 FILLER_0_20_15
*805 FILLER_0_20_153
*806 FILLER_0_20_165
*807 FILLER_0_20_177
*808 FILLER_0_20_189
*809 FILLER_0_20_195
*810 FILLER_0_20_197
*811 FILLER_0_20_209
*812 FILLER_0_20_221
*813 FILLER_0_20_233
*814 FILLER_0_20_245
*815 FILLER_0_20_251
*816 FILLER_0_20_253
*817 FILLER_0_20_265
*818 FILLER_0_20_27
*819 FILLER_0_20_277
*820 FILLER_0_20_289
*821 FILLER_0_20_29
*822 FILLER_0_20_3
*823 FILLER_0_20_301
*824 FILLER_0_20_307
*825 FILLER_0_20_309
*826 FILLER_0_20_321
*827 FILLER_0_20_333
*828 FILLER_0_20_41
*829 FILLER_0_20_53
*830 FILLER_0_20_65
*831 FILLER_0_20_77
*832 FILLER_0_20_83
*833 FILLER_0_20_85
*834 FILLER_0_20_97
*835 FILLER_0_21_105
*836 FILLER_0_21_111
*837 FILLER_0_21_113
*838 FILLER_0_21_125
*839 FILLER_0_21_137
*840 FILLER_0_21_149
*841 FILLER_0_21_15
*842 FILLER_0_21_161
*843 FILLER_0_21_167
*844 FILLER_0_21_169
*845 FILLER_0_21_181
*846 FILLER_0_21_193
*847 FILLER_0_21_205
*848 FILLER_0_21_217
*849 FILLER_0_21_223
*850 FILLER_0_21_225
*851 FILLER_0_21_237
*852 FILLER_0_21_249
*853 FILLER_0_21_261
*854 FILLER_0_21_27
*855 FILLER_0_21_273
*856 FILLER_0_21_279
*857 FILLER_0_21_281
*858 FILLER_0_21_293
*859 FILLER_0_21_3
*860 FILLER_0_21_305
*861 FILLER_0_21_317
*862 FILLER_0_21_329
*863 FILLER_0_21_39
*864 FILLER_0_21_51
*865 FILLER_0_21_55
*866 FILLER_0_21_57
*867 FILLER_0_21_69
*868 FILLER_0_21_81
*869 FILLER_0_21_93
*870 FILLER_0_22_109
*871 FILLER_0_22_121
*872 FILLER_0_22_133
*873 FILLER_0_22_139
*874 FILLER_0_22_141
*875 FILLER_0_22_15
*876 FILLER_0_22_153
*877 FILLER_0_22_165
*878 FILLER_0_22_177
*879 FILLER_0_22_189
*880 FILLER_0_22_195
*881 FILLER_0_22_197
*882 FILLER_0_22_209
*883 FILLER_0_22_221
*884 FILLER_0_22_233
*885 FILLER_0_22_245
*886 FILLER_0_22_251
*887 FILLER_0_22_253
*888 FILLER_0_22_265
*889 FILLER_0_22_27
*890 FILLER_0_22_272
*891 FILLER_0_22_284
*892 FILLER_0_22_29
*893 FILLER_0_22_296
*894 FILLER_0_22_3
*895 FILLER_0_22_309
*896 FILLER_0_22_321
*897 FILLER_0_22_333
*898 FILLER_0_22_41
*899 FILLER_0_22_53
*900 FILLER_0_22_65
*901 FILLER_0_22_77
*902 FILLER_0_22_83
*903 FILLER_0_22_85
*904 FILLER_0_22_97
*905 FILLER_0_23_105
*906 FILLER_0_23_111
*907 FILLER_0_23_113
*908 FILLER_0_23_125
*909 FILLER_0_23_137
*910 FILLER_0_23_149
*911 FILLER_0_23_15
*912 FILLER_0_23_161
*913 FILLER_0_23_167
*914 FILLER_0_23_169
*915 FILLER_0_23_181
*916 FILLER_0_23_193
*917 FILLER_0_23_205
*918 FILLER_0_23_213
*919 FILLER_0_23_222
*920 FILLER_0_23_228
*921 FILLER_0_23_240
*922 FILLER_0_23_248
*923 FILLER_0_23_258
*924 FILLER_0_23_27
*925 FILLER_0_23_279
*926 FILLER_0_23_281
*927 FILLER_0_23_3
*928 FILLER_0_23_305
*929 FILLER_0_23_317
*930 FILLER_0_23_329
*931 FILLER_0_23_39
*932 FILLER_0_23_51
*933 FILLER_0_23_55
*934 FILLER_0_23_57
*935 FILLER_0_23_69
*936 FILLER_0_23_81
*937 FILLER_0_23_93
*938 FILLER_0_24_109
*939 FILLER_0_24_121
*940 FILLER_0_24_133
*941 FILLER_0_24_139
*942 FILLER_0_24_141
*943 FILLER_0_24_15
*944 FILLER_0_24_153
*945 FILLER_0_24_165
*946 FILLER_0_24_177
*947 FILLER_0_24_189
*948 FILLER_0_24_195
*949 FILLER_0_24_197
*950 FILLER_0_24_205
*951 FILLER_0_24_211
*952 FILLER_0_24_224
*953 FILLER_0_24_241
*954 FILLER_0_24_249
*955 FILLER_0_24_261
*956 FILLER_0_24_27
*957 FILLER_0_24_275
*958 FILLER_0_24_281
*959 FILLER_0_24_285
*960 FILLER_0_24_29
*961 FILLER_0_24_293
*962 FILLER_0_24_3
*963 FILLER_0_24_303
*964 FILLER_0_24_307
*965 FILLER_0_24_309
*966 FILLER_0_24_321
*967 FILLER_0_24_333
*968 FILLER_0_24_41
*969 FILLER_0_24_53
*970 FILLER_0_24_65
*971 FILLER_0_24_77
*972 FILLER_0_24_83
*973 FILLER_0_24_85
*974 FILLER_0_24_97
*975 FILLER_0_25_105
*976 FILLER_0_25_111
*977 FILLER_0_25_113
*978 FILLER_0_25_125
*979 FILLER_0_25_137
*980 FILLER_0_25_149
*981 FILLER_0_25_15
*982 FILLER_0_25_161
*983 FILLER_0_25_167
*984 FILLER_0_25_169
*985 FILLER_0_25_181
*986 FILLER_0_25_187
*987 FILLER_0_25_197
*988 FILLER_0_25_219
*989 FILLER_0_25_223
*990 FILLER_0_25_225
*991 FILLER_0_25_233
*992 FILLER_0_25_242
*993 FILLER_0_25_254
*994 FILLER_0_25_263
*995 FILLER_0_25_27
*996 FILLER_0_25_292
*997 FILLER_0_25_3
*998 FILLER_0_25_309
*999 FILLER_0_25_315
*1000 FILLER_0_25_325
*1001 FILLER_0_25_333
*1002 FILLER_0_25_39
*1003 FILLER_0_25_51
*1004 FILLER_0_25_55
*1005 FILLER_0_25_57
*1006 FILLER_0_25_69
*1007 FILLER_0_25_81
*1008 FILLER_0_25_93
*1009 FILLER_0_26_109
*1010 FILLER_0_26_121
*1011 FILLER_0_26_133
*1012 FILLER_0_26_139
*1013 FILLER_0_26_141
*1014 FILLER_0_26_15
*1015 FILLER_0_26_153
*1016 FILLER_0_26_165
*1017 FILLER_0_26_183
*1018 FILLER_0_26_187
*1019 FILLER_0_26_194
*1020 FILLER_0_26_200
*1021 FILLER_0_26_211
*1022 FILLER_0_26_223
*1023 FILLER_0_26_234
*1024 FILLER_0_26_246
*1025 FILLER_0_26_253
*1026 FILLER_0_26_261
*1027 FILLER_0_26_266
*1028 FILLER_0_26_27
*1029 FILLER_0_26_278
*1030 FILLER_0_26_283
*1031 FILLER_0_26_29
*1032 FILLER_0_26_295
*1033 FILLER_0_26_3
*1034 FILLER_0_26_307
*1035 FILLER_0_26_309
*1036 FILLER_0_26_313
*1037 FILLER_0_26_334
*1038 FILLER_0_26_41
*1039 FILLER_0_26_53
*1040 FILLER_0_26_65
*1041 FILLER_0_26_77
*1042 FILLER_0_26_83
*1043 FILLER_0_26_85
*1044 FILLER_0_26_97
*1045 FILLER_0_27_106
*1046 FILLER_0_27_133
*1047 FILLER_0_27_145
*1048 FILLER_0_27_15
*1049 FILLER_0_27_157
*1050 FILLER_0_27_165
*1051 FILLER_0_27_169
*1052 FILLER_0_27_173
*1053 FILLER_0_27_183
*1054 FILLER_0_27_197
*1055 FILLER_0_27_203
*1056 FILLER_0_27_225
*1057 FILLER_0_27_254
*1058 FILLER_0_27_258
*1059 FILLER_0_27_27
*1060 FILLER_0_27_275
*1061 FILLER_0_27_281
*1062 FILLER_0_27_3
*1063 FILLER_0_27_300
*1064 FILLER_0_27_312
*1065 FILLER_0_27_320
*1066 FILLER_0_27_327
*1067 FILLER_0_27_332
*1068 FILLER_0_27_39
*1069 FILLER_0_27_51
*1070 FILLER_0_27_55
*1071 FILLER_0_27_57
*1072 FILLER_0_27_69
*1073 FILLER_0_27_81
*1074 FILLER_0_27_85
*1075 FILLER_0_28_101
*1076 FILLER_0_28_113
*1077 FILLER_0_28_117
*1078 FILLER_0_28_121
*1079 FILLER_0_28_132
*1080 FILLER_0_28_15
*1081 FILLER_0_28_167
*1082 FILLER_0_28_179
*1083 FILLER_0_28_187
*1084 FILLER_0_28_194
*1085 FILLER_0_28_203
*1086 FILLER_0_28_212
*1087 FILLER_0_28_226
*1088 FILLER_0_28_238
*1089 FILLER_0_28_250
*1090 FILLER_0_28_265
*1091 FILLER_0_28_27
*1092 FILLER_0_28_277
*1093 FILLER_0_28_289
*1094 FILLER_0_28_29
*1095 FILLER_0_28_3
*1096 FILLER_0_28_306
*1097 FILLER_0_28_309
*1098 FILLER_0_28_334
*1099 FILLER_0_28_41
*1100 FILLER_0_28_53
*1101 FILLER_0_28_65
*1102 FILLER_0_28_77
*1103 FILLER_0_28_83
*1104 FILLER_0_28_92
*1105 FILLER_0_29_101
*1106 FILLER_0_29_109
*1107 FILLER_0_29_113
*1108 FILLER_0_29_117
*1109 FILLER_0_29_124
*1110 FILLER_0_29_145
*1111 FILLER_0_29_15
*1112 FILLER_0_29_157
*1113 FILLER_0_29_165
*1114 FILLER_0_29_169
*1115 FILLER_0_29_180
*1116 FILLER_0_29_188
*1117 FILLER_0_29_198
*1118 FILLER_0_29_225
*1119 FILLER_0_29_241
*1120 FILLER_0_29_247
*1121 FILLER_0_29_262
*1122 FILLER_0_29_268
*1123 FILLER_0_29_27
*1124 FILLER_0_29_284
*1125 FILLER_0_29_292
*1126 FILLER_0_29_299
*1127 FILLER_0_29_3
*1128 FILLER_0_29_311
*1129 FILLER_0_29_315
*1130 FILLER_0_29_319
*1131 FILLER_0_29_331
*1132 FILLER_0_29_39
*1133 FILLER_0_29_51
*1134 FILLER_0_29_55
*1135 FILLER_0_29_57
*1136 FILLER_0_29_69
*1137 FILLER_0_29_81
*1138 FILLER_0_29_87
*1139 FILLER_0_29_91
*1140 FILLER_0_29_96
*1141 FILLER_0_2_109
*1142 FILLER_0_2_121
*1143 FILLER_0_2_133
*1144 FILLER_0_2_139
*1145 FILLER_0_2_141
*1146 FILLER_0_2_15
*1147 FILLER_0_2_153
*1148 FILLER_0_2_165
*1149 FILLER_0_2_177
*1150 FILLER_0_2_189
*1151 FILLER_0_2_195
*1152 FILLER_0_2_197
*1153 FILLER_0_2_209
*1154 FILLER_0_2_221
*1155 FILLER_0_2_233
*1156 FILLER_0_2_245
*1157 FILLER_0_2_251
*1158 FILLER_0_2_253
*1159 FILLER_0_2_265
*1160 FILLER_0_2_27
*1161 FILLER_0_2_277
*1162 FILLER_0_2_289
*1163 FILLER_0_2_29
*1164 FILLER_0_2_3
*1165 FILLER_0_2_301
*1166 FILLER_0_2_307
*1167 FILLER_0_2_309
*1168 FILLER_0_2_321
*1169 FILLER_0_2_333
*1170 FILLER_0_2_41
*1171 FILLER_0_2_53
*1172 FILLER_0_2_65
*1173 FILLER_0_2_77
*1174 FILLER_0_2_83
*1175 FILLER_0_2_85
*1176 FILLER_0_2_97
*1177 FILLER_0_30_131
*1178 FILLER_0_30_141
*1179 FILLER_0_30_15
*1180 FILLER_0_30_166
*1181 FILLER_0_30_170
*1182 FILLER_0_30_179
*1183 FILLER_0_30_185
*1184 FILLER_0_30_195
*1185 FILLER_0_30_197
*1186 FILLER_0_30_209
*1187 FILLER_0_30_221
*1188 FILLER_0_30_229
*1189 FILLER_0_30_236
*1190 FILLER_0_30_248
*1191 FILLER_0_30_257
*1192 FILLER_0_30_27
*1193 FILLER_0_30_277
*1194 FILLER_0_30_285
*1195 FILLER_0_30_29
*1196 FILLER_0_30_296
*1197 FILLER_0_30_3
*1198 FILLER_0_30_312
*1199 FILLER_0_30_320
*1200 FILLER_0_30_326
*1201 FILLER_0_30_334
*1202 FILLER_0_30_41
*1203 FILLER_0_30_53
*1204 FILLER_0_30_65
*1205 FILLER_0_30_77
*1206 FILLER_0_30_83
*1207 FILLER_0_30_85
*1208 FILLER_0_31_105
*1209 FILLER_0_31_111
*1210 FILLER_0_31_113
*1211 FILLER_0_31_125
*1212 FILLER_0_31_137
*1213 FILLER_0_31_149
*1214 FILLER_0_31_15
*1215 FILLER_0_31_157
*1216 FILLER_0_31_161
*1217 FILLER_0_31_167
*1218 FILLER_0_31_169
*1219 FILLER_0_31_175
*1220 FILLER_0_31_183
*1221 FILLER_0_31_196
*1222 FILLER_0_31_203
*1223 FILLER_0_31_209
*1224 FILLER_0_31_216
*1225 FILLER_0_31_225
*1226 FILLER_0_31_231
*1227 FILLER_0_31_240
*1228 FILLER_0_31_257
*1229 FILLER_0_31_263
*1230 FILLER_0_31_27
*1231 FILLER_0_31_278
*1232 FILLER_0_31_287
*1233 FILLER_0_31_297
*1234 FILLER_0_31_3
*1235 FILLER_0_31_305
*1236 FILLER_0_31_317
*1237 FILLER_0_31_39
*1238 FILLER_0_31_51
*1239 FILLER_0_31_55
*1240 FILLER_0_31_57
*1241 FILLER_0_31_69
*1242 FILLER_0_31_81
*1243 FILLER_0_31_93
*1244 FILLER_0_32_107
*1245 FILLER_0_32_133
*1246 FILLER_0_32_144
*1247 FILLER_0_32_15
*1248 FILLER_0_32_170
*1249 FILLER_0_32_178
*1250 FILLER_0_32_190
*1251 FILLER_0_32_197
*1252 FILLER_0_32_201
*1253 FILLER_0_32_212
*1254 FILLER_0_32_246
*1255 FILLER_0_32_27
*1256 FILLER_0_32_270
*1257 FILLER_0_32_282
*1258 FILLER_0_32_29
*1259 FILLER_0_32_290
*1260 FILLER_0_32_3
*1261 FILLER_0_32_304
*1262 FILLER_0_32_309
*1263 FILLER_0_32_324
*1264 FILLER_0_32_328
*1265 FILLER_0_32_334
*1266 FILLER_0_32_41
*1267 FILLER_0_32_53
*1268 FILLER_0_32_65
*1269 FILLER_0_32_77
*1270 FILLER_0_32_83
*1271 FILLER_0_32_85
*1272 FILLER_0_32_93
*1273 FILLER_0_32_99
*1274 FILLER_0_33_104
*1275 FILLER_0_33_110
*1276 FILLER_0_33_122
*1277 FILLER_0_33_130
*1278 FILLER_0_33_15
*1279 FILLER_0_33_152
*1280 FILLER_0_33_164
*1281 FILLER_0_33_176
*1282 FILLER_0_33_191
*1283 FILLER_0_33_203
*1284 FILLER_0_33_210
*1285 FILLER_0_33_222
*1286 FILLER_0_33_225
*1287 FILLER_0_33_237
*1288 FILLER_0_33_245
*1289 FILLER_0_33_251
*1290 FILLER_0_33_263
*1291 FILLER_0_33_27
*1292 FILLER_0_33_271
*1293 FILLER_0_33_279
*1294 FILLER_0_33_3
*1295 FILLER_0_33_311
*1296 FILLER_0_33_317
*1297 FILLER_0_33_39
*1298 FILLER_0_33_51
*1299 FILLER_0_33_55
*1300 FILLER_0_33_57
*1301 FILLER_0_33_69
*1302 FILLER_0_34_102
*1303 FILLER_0_34_109
*1304 FILLER_0_34_121
*1305 FILLER_0_34_135
*1306 FILLER_0_34_139
*1307 FILLER_0_34_141
*1308 FILLER_0_34_147
*1309 FILLER_0_34_15
*1310 FILLER_0_34_151
*1311 FILLER_0_34_164
*1312 FILLER_0_34_176
*1313 FILLER_0_34_182
*1314 FILLER_0_34_189
*1315 FILLER_0_34_200
*1316 FILLER_0_34_208
*1317 FILLER_0_34_215
*1318 FILLER_0_34_251
*1319 FILLER_0_34_268
*1320 FILLER_0_34_27
*1321 FILLER_0_34_276
*1322 FILLER_0_34_289
*1323 FILLER_0_34_29
*1324 FILLER_0_34_3
*1325 FILLER_0_34_301
*1326 FILLER_0_34_307
*1327 FILLER_0_34_309
*1328 FILLER_0_34_317
*1329 FILLER_0_34_332
*1330 FILLER_0_34_41
*1331 FILLER_0_34_53
*1332 FILLER_0_34_65
*1333 FILLER_0_34_77
*1334 FILLER_0_34_85
*1335 FILLER_0_34_90
*1336 FILLER_0_35_111
*1337 FILLER_0_35_113
*1338 FILLER_0_35_137
*1339 FILLER_0_35_15
*1340 FILLER_0_35_169
*1341 FILLER_0_35_184
*1342 FILLER_0_35_190
*1343 FILLER_0_35_202
*1344 FILLER_0_35_211
*1345 FILLER_0_35_223
*1346 FILLER_0_35_225
*1347 FILLER_0_35_236
*1348 FILLER_0_35_248
*1349 FILLER_0_35_254
*1350 FILLER_0_35_262
*1351 FILLER_0_35_268
*1352 FILLER_0_35_27
*1353 FILLER_0_35_281
*1354 FILLER_0_35_294
*1355 FILLER_0_35_3
*1356 FILLER_0_35_308
*1357 FILLER_0_35_326
*1358 FILLER_0_35_333
*1359 FILLER_0_35_39
*1360 FILLER_0_35_51
*1361 FILLER_0_35_55
*1362 FILLER_0_35_57
*1363 FILLER_0_35_69
*1364 FILLER_0_35_87
*1365 FILLER_0_36_114
*1366 FILLER_0_36_126
*1367 FILLER_0_36_138
*1368 FILLER_0_36_149
*1369 FILLER_0_36_15
*1370 FILLER_0_36_157
*1371 FILLER_0_36_161
*1372 FILLER_0_36_169
*1373 FILLER_0_36_176
*1374 FILLER_0_36_188
*1375 FILLER_0_36_197
*1376 FILLER_0_36_203
*1377 FILLER_0_36_213
*1378 FILLER_0_36_225
*1379 FILLER_0_36_231
*1380 FILLER_0_36_241
*1381 FILLER_0_36_249
*1382 FILLER_0_36_262
*1383 FILLER_0_36_27
*1384 FILLER_0_36_275
*1385 FILLER_0_36_287
*1386 FILLER_0_36_29
*1387 FILLER_0_36_296
*1388 FILLER_0_36_3
*1389 FILLER_0_36_302
*1390 FILLER_0_36_319
*1391 FILLER_0_36_331
*1392 FILLER_0_36_41
*1393 FILLER_0_36_53
*1394 FILLER_0_36_65
*1395 FILLER_0_36_77
*1396 FILLER_0_36_83
*1397 FILLER_0_36_85
*1398 FILLER_0_36_97
*1399 FILLER_0_37_109
*1400 FILLER_0_37_118
*1401 FILLER_0_37_129
*1402 FILLER_0_37_15
*1403 FILLER_0_37_158
*1404 FILLER_0_37_164
*1405 FILLER_0_37_169
*1406 FILLER_0_37_201
*1407 FILLER_0_37_210
*1408 FILLER_0_37_223
*1409 FILLER_0_37_225
*1410 FILLER_0_37_242
*1411 FILLER_0_37_251
*1412 FILLER_0_37_263
*1413 FILLER_0_37_27
*1414 FILLER_0_37_271
*1415 FILLER_0_37_279
*1416 FILLER_0_37_3
*1417 FILLER_0_37_313
*1418 FILLER_0_37_330
*1419 FILLER_0_37_39
*1420 FILLER_0_37_51
*1421 FILLER_0_37_55
*1422 FILLER_0_37_57
*1423 FILLER_0_37_69
*1424 FILLER_0_37_82
*1425 FILLER_0_38_10
*1426 FILLER_0_38_102
*1427 FILLER_0_38_106
*1428 FILLER_0_38_110
*1429 FILLER_0_38_113
*1430 FILLER_0_38_130
*1431 FILLER_0_38_138
*1432 FILLER_0_38_14
*1433 FILLER_0_38_141
*1434 FILLER_0_38_147
*1435 FILLER_0_38_153
*1436 FILLER_0_38_158
*1437 FILLER_0_38_166
*1438 FILLER_0_38_169
*1439 FILLER_0_38_175
*1440 FILLER_0_38_18
*1441 FILLER_0_38_188
*1442 FILLER_0_38_197
*1443 FILLER_0_38_201
*1444 FILLER_0_38_211
*1445 FILLER_0_38_22
*1446 FILLER_0_38_223
*1447 FILLER_0_38_225
*1448 FILLER_0_38_231
*1449 FILLER_0_38_241
*1450 FILLER_0_38_263
*1451 FILLER_0_38_274
*1452 FILLER_0_38_292
*1453 FILLER_0_38_309
*1454 FILLER_0_38_32
*1455 FILLER_0_38_334
*1456 FILLER_0_38_38
*1457 FILLER_0_38_42
*1458 FILLER_0_38_46
*1459 FILLER_0_38_50
*1460 FILLER_0_38_54
*1461 FILLER_0_38_57
*1462 FILLER_0_38_6
*1463 FILLER_0_38_62
*1464 FILLER_0_38_66
*1465 FILLER_0_38_70
*1466 FILLER_0_38_74
*1467 FILLER_0_38_78
*1468 FILLER_0_38_88
*1469 FILLER_0_38_94
*1470 FILLER_0_38_98
*1471 FILLER_0_3_105
*1472 FILLER_0_3_111
*1473 FILLER_0_3_113
*1474 FILLER_0_3_125
*1475 FILLER_0_3_137
*1476 FILLER_0_3_149
*1477 FILLER_0_3_15
*1478 FILLER_0_3_161
*1479 FILLER_0_3_167
*1480 FILLER_0_3_169
*1481 FILLER_0_3_181
*1482 FILLER_0_3_193
*1483 FILLER_0_3_205
*1484 FILLER_0_3_217
*1485 FILLER_0_3_223
*1486 FILLER_0_3_225
*1487 FILLER_0_3_237
*1488 FILLER_0_3_249
*1489 FILLER_0_3_261
*1490 FILLER_0_3_27
*1491 FILLER_0_3_273
*1492 FILLER_0_3_279
*1493 FILLER_0_3_281
*1494 FILLER_0_3_293
*1495 FILLER_0_3_3
*1496 FILLER_0_3_305
*1497 FILLER_0_3_317
*1498 FILLER_0_3_329
*1499 FILLER_0_3_39
*1500 FILLER_0_3_51
*1501 FILLER_0_3_55
*1502 FILLER_0_3_57
*1503 FILLER_0_3_69
*1504 FILLER_0_3_81
*1505 FILLER_0_3_93
*1506 FILLER_0_4_109
*1507 FILLER_0_4_121
*1508 FILLER_0_4_133
*1509 FILLER_0_4_139
*1510 FILLER_0_4_141
*1511 FILLER_0_4_15
*1512 FILLER_0_4_153
*1513 FILLER_0_4_165
*1514 FILLER_0_4_177
*1515 FILLER_0_4_189
*1516 FILLER_0_4_195
*1517 FILLER_0_4_197
*1518 FILLER_0_4_209