*SPEF "ieee 1481-1999"
*DESIGN "tt_um_rajum_iterativeMAC"
*DATE "19:34:04 Saturday June 01, 2024"
*VENDOR "The OpenROAD Project"
*PROGRAM "OpenROAD"
*VERSION "da0053d7b0014ab9c87ea148875ff6c2a0f9b658"
*DESIGN_FLOW "NAME_SCOPE LOCAL" "PIN_CAP NONE"
*DIVIDER /
*DELIMITER :
*BUS_DELIMITER []
*T_UNIT 1 NS
*C_UNIT 1 PF
*R_UNIT 1 OHM
*L_UNIT 1 HENRY

*NAME_MAP
*3 clk
*4 ena
*5 rst_n
*6 ui_in[0]
*7 ui_in[1]
*8 ui_in[2]
*9 ui_in[3]
*10 ui_in[4]
*11 ui_in[5]
*12 ui_in[6]
*13 ui_in[7]
*14 uio_in[0]
*15 uio_in[1]
*16 uio_in[2]
*17 uio_in[3]
*18 uio_in[4]
*19 uio_in[5]
*20 uio_in[6]
*21 uio_in[7]
*22 uio_oe[0]
*23 uio_oe[1]
*24 uio_oe[2]
*25 uio_oe[3]
*26 uio_oe[4]
*27 uio_oe[5]
*28 uio_oe[6]
*29 uio_oe[7]
*30 uio_out[0]
*31 uio_out[1]
*32 uio_out[2]
*33 uio_out[3]
*34 uio_out[4]
*35 uio_out[5]
*36 uio_out[6]
*37 uio_out[7]
*38 uo_out[0]
*39 uo_out[1]
*40 uo_out[2]
*41 uo_out[3]
*42 uo_out[4]
*43 uo_out[5]
*44 uo_out[6]
*45 uo_out[7]
*46 _0000_
*47 _0001_
*48 _0002_
*49 _0003_
*50 _0004_
*51 _0005_
*52 _0006_
*53 _0007_
*54 _0008_
*55 _0009_
*56 _0010_
*57 _0011_
*58 _0012_
*59 _0013_
*60 _0014_
*61 _0015_
*62 _0016_
*63 _0017_
*64 _0018_
*65 _0019_
*66 _0020_
*67 _0021_
*68 _0022_
*69 _0023_
*70 _0024_
*71 _0025_
*72 _0026_
*73 _0027_
*74 _0028_
*75 _0029_
*76 _0030_
*77 _0031_
*78 _0032_
*79 _0033_
*80 _0034_
*81 _0035_
*82 _0036_
*83 _0037_
*84 _0038_
*85 _0039_
*86 _0040_
*87 _0041_
*88 _0042_
*89 _0043_
*90 _0044_
*91 _0045_
*92 _0046_
*93 _0047_
*94 _0048_
*95 _0049_
*96 _0050_
*97 _0051_
*98 _0052_
*99 _0053_
*100 _0054_
*101 _0055_
*102 _0056_
*103 _0057_
*104 _0058_
*105 _0059_
*106 _0060_
*107 _0061_
*108 _0062_
*109 _0063_
*110 _0064_
*111 _0065_
*112 _0066_
*113 _0067_
*114 _0068_
*115 _0069_
*116 _0070_
*117 _0071_
*118 _0072_
*119 _0073_
*120 _0074_
*121 _0075_
*122 _0076_
*123 _0077_
*124 _0078_
*125 _0079_
*126 _0080_
*127 _0081_
*128 _0082_
*129 _0083_
*130 _0084_
*131 _0085_
*132 _0086_
*133 _0087_
*134 _0088_
*135 _0089_
*136 _0090_
*137 _0091_
*138 _0092_
*139 _0093_
*140 _0094_
*141 _0095_
*142 _0096_
*143 _0097_
*144 _0098_
*145 _0099_
*146 _0100_
*147 _0101_
*148 _0102_
*149 _0103_
*150 _0104_
*151 _0105_
*152 _0106_
*153 _0107_
*154 _0108_
*155 _0109_
*156 _0110_
*157 _0111_
*158 _0112_
*159 _0113_
*160 _0114_
*161 _0115_
*162 _0116_
*163 _0117_
*164 _0118_
*165 _0119_
*166 _0120_
*167 _0121_
*168 _0122_
*169 _0123_
*170 _0124_
*171 _0125_
*172 _0126_
*173 _0127_
*174 _0128_
*175 _0129_
*176 _0130_
*177 _0131_
*178 _0132_
*179 _0133_
*180 _0134_
*181 _0135_
*182 _0136_
*183 _0137_
*184 _0138_
*185 _0139_
*186 _0140_
*187 _0141_
*188 _0142_
*189 _0143_
*190 _0144_
*191 _0145_
*192 _0146_
*193 _0147_
*194 _0148_
*195 _0149_
*196 _0150_
*197 _0151_
*198 _0152_
*199 _0153_
*200 _0154_
*201 _0155_
*202 _0156_
*203 _0157_
*204 _0158_
*205 _0159_
*206 _0160_
*207 _0161_
*208 _0162_
*209 _0163_
*210 _0164_
*211 _0165_
*212 _0166_
*213 _0167_
*214 _0168_
*215 _0169_
*216 _0170_
*217 _0171_
*218 _0172_
*219 _0173_
*220 _0174_
*221 _0175_
*222 _0176_
*223 _0177_
*224 _0178_
*225 _0179_
*226 _0180_
*227 _0181_
*228 _0182_
*229 _0183_
*230 _0184_
*231 _0185_
*232 _0186_
*233 _0187_
*234 _0188_
*235 _0189_
*236 _0190_
*237 _0191_
*238 _0192_
*239 _0193_
*240 _0194_
*241 _0195_
*242 _0196_
*243 _0197_
*244 _0198_
*245 _0199_
*246 _0200_
*247 _0201_
*248 _0202_
*249 _0203_
*250 _0204_
*251 _0205_
*252 _0206_
*253 _0207_
*254 _0208_
*255 _0209_
*256 _0210_
*257 _0211_
*258 _0212_
*259 _0213_
*260 _0214_
*261 _0215_
*262 _0216_
*263 _0217_
*264 _0218_
*265 _0219_
*266 _0220_
*267 _0221_
*268 _0222_
*269 _0223_
*270 _0224_
*271 _0225_
*272 _0226_
*273 _0227_
*274 _0228_
*275 _0229_
*276 _0230_
*277 _0231_
*278 _0232_
*279 _0233_
*280 _0234_
*281 _0235_
*282 _0236_
*283 _0237_
*284 _0238_
*285 _0239_
*286 _0240_
*287 _0241_
*288 _0242_
*289 _0243_
*290 _0244_
*291 _0245_
*292 _0246_
*293 _0247_
*294 _0248_
*295 _0249_
*296 _0250_
*297 _0251_
*298 _0252_
*299 _0253_
*300 _0254_
*301 _0255_
*302 _0256_
*303 _0257_
*304 _0258_
*305 _0259_
*306 _0260_
*307 _0261_
*308 _0262_
*309 _0263_
*310 _0264_
*311 _0265_
*312 _0266_
*313 _0267_
*314 _0268_
*315 _0269_
*316 _0270_
*317 _0271_
*318 _0272_
*319 _0273_
*320 _0274_
*321 _0275_
*322 _0276_
*323 _0277_
*324 _0278_
*325 _0279_
*326 _0280_
*327 _0281_
*328 _0282_
*329 _0283_
*330 _0284_
*331 _0285_
*332 _0286_
*333 _0287_
*334 _0288_
*335 _0289_
*336 _0290_
*337 _0291_
*338 _0292_
*339 _0293_
*340 _0294_
*341 _0295_
*342 _0296_
*343 _0297_
*344 _0298_
*345 _0299_
*346 _0300_
*347 _0301_
*348 _0302_
*349 _0303_
*350 _0304_
*351 _0305_
*352 _0306_
*353 _0307_
*354 _0308_
*355 _0309_
*356 _0310_
*357 _0311_
*358 _0312_
*359 _0313_
*360 _0314_
*361 _0315_
*362 _0316_
*363 _0317_
*364 _0318_
*365 _0319_
*366 _0320_
*367 _0321_
*368 _0322_
*369 _0323_
*370 _0324_
*371 _0325_
*372 _0326_
*373 _0327_
*374 _0328_
*375 _0329_
*376 _0330_
*377 _0331_
*378 _0332_
*379 _0333_
*380 _0334_
*381 _0335_
*382 _0336_
*383 _0337_
*384 _0338_
*385 _0339_
*386 _0340_
*387 _0341_
*388 _0342_
*389 _0343_
*390 _0344_
*391 _0345_
*392 _0346_
*393 _0347_
*394 _0348_
*395 _0349_
*396 _0350_
*397 _0351_
*398 _0352_
*399 _0353_
*400 _0354_
*401 _0355_
*402 _0356_
*403 _0357_
*404 _0358_
*405 _0359_
*406 _0360_
*407 _0361_
*408 _0362_
*409 _0363_
*410 _0364_
*411 _0365_
*412 _0366_
*413 _0367_
*414 _0368_
*415 _0369_
*416 _0370_
*417 _0371_
*418 _0372_
*419 _0373_
*420 _0374_
*421 _0375_
*422 _0376_
*423 _0377_
*424 _0378_
*425 _0379_
*426 _0380_
*427 _0381_
*428 _0382_
*429 _0383_
*430 _0384_
*431 _0385_
*432 _0386_
*433 _0387_
*434 _0388_
*435 _0389_
*436 _0390_
*437 _0391_
*438 _0392_
*439 _0393_
*440 _0394_
*441 _0395_
*442 _0396_
*443 _0397_
*444 _0398_
*445 _0399_
*446 _0400_
*447 _0401_
*448 _0402_
*449 _0403_
*450 _0404_
*451 _0405_
*452 _0406_
*453 _0407_
*454 _0408_
*455 _0409_
*456 _0410_
*457 _0411_
*458 _0412_
*459 _0413_
*460 _0414_
*461 _0415_
*462 _0416_
*463 _0417_
*464 _0418_
*465 _0419_
*466 _0420_
*467 _0421_
*468 _0422_
*469 _0423_
*470 _0424_
*471 _0425_
*472 _0426_
*473 _0427_
*474 _0428_
*475 _0429_
*476 _0430_
*477 _0431_
*478 _0432_
*479 _0433_
*480 _0434_
*481 _0435_
*482 _0436_
*483 _0437_
*484 _0438_
*485 _0439_
*486 _0440_
*487 _0441_
*488 _0442_
*489 _0443_
*490 _0444_
*491 _0445_
*492 _0446_
*493 _0447_
*494 _0448_
*495 _0449_
*496 _0450_
*497 _0451_
*498 _0452_
*499 _0453_
*500 _0454_
*501 _0455_
*502 _0456_
*503 _0457_
*504 _0458_
*505 _0459_
*506 _0460_
*507 _0461_
*508 _0462_
*509 _0463_
*510 _0464_
*511 _0465_
*512 _0466_
*513 _0467_
*514 _0468_
*515 _0469_
*516 _0470_
*517 _0471_
*518 _0472_
*519 _0473_
*520 _0474_
*521 _0475_
*522 _0476_
*523 _0477_
*524 _0478_
*525 _0479_
*526 _0480_
*527 _0481_
*528 _0482_
*529 _0483_
*530 _0484_
*531 _0485_
*532 _0486_
*533 _0487_
*534 _0488_
*535 _0489_
*536 _0490_
*537 _0491_
*538 _0492_
*539 _0493_
*540 _0494_
*541 _0495_
*542 _0496_
*543 _0497_
*544 _0498_
*545 _0499_
*546 _0500_
*547 _0501_
*548 _0502_
*549 _0503_
*550 _0504_
*551 _0505_
*552 _0506_
*553 _0507_
*554 _0508_
*555 _0509_
*556 _0510_
*557 _0511_
*558 _0512_
*559 _0513_
*560 _0514_
*561 _0515_
*562 _0516_
*563 _0517_
*564 _0518_
*565 _0519_
*566 _0520_
*567 _0521_
*568 _0522_
*569 _0523_
*570 _0524_
*571 _0525_
*572 _0526_
*573 _0527_
*574 _0528_
*575 _0529_
*576 _0530_
*577 _0531_
*578 _0532_
*579 _0533_
*580 _0534_
*581 _0535_
*582 _0536_
*583 _0537_
*584 _0538_
*585 _0539_
*586 _0540_
*587 _0541_
*588 _0542_
*589 _0543_
*590 _0544_
*591 _0545_
*592 _0546_
*593 _0547_
*594 _0548_
*595 _0549_
*596 _0550_
*597 _0551_
*598 _0552_
*599 _0553_
*600 _0554_
*601 _0555_
*602 _0556_
*603 _0557_
*604 _0558_
*605 _0559_
*606 _0560_
*607 _0561_
*608 _0562_
*609 _0563_
*610 _0564_
*611 _0565_
*612 _0566_
*613 _0567_
*614 _0568_
*615 _0569_
*616 _0570_
*617 _0571_
*618 _0572_
*619 _0573_
*620 _0574_
*621 _0575_
*622 _0576_
*623 _0577_
*624 _0578_
*625 _0579_
*626 _0580_
*627 _0581_
*628 _0582_
*629 _0583_
*630 _0584_
*631 _0585_
*632 _0586_
*633 _0587_
*634 _0588_
*635 _0589_
*636 _0590_
*637 _0591_
*638 _0592_
*639 _0593_
*640 _0594_
*641 _0595_
*642 _0596_
*643 _0597_
*644 _0598_
*645 _0599_
*646 _0600_
*647 _0601_
*648 _0602_
*649 _0603_
*650 _0604_
*651 _0605_
*652 _0606_
*653 _0607_
*654 _0608_
*655 _0609_
*656 _0610_
*657 _0611_
*658 _0612_
*659 _0613_
*660 _0614_
*661 _0615_
*662 _0616_
*663 _0617_
*664 _0618_
*665 _0619_
*666 _0620_
*667 _0621_
*668 _0622_
*669 _0623_
*670 _0624_
*671 _0625_
*672 _0626_
*673 _0627_
*674 _0628_
*675 _0629_
*676 _0630_
*677 _0631_
*678 _0632_
*679 _0633_
*680 _0634_
*681 _0635_
*682 _0636_
*683 _0637_
*684 _0638_
*685 _0639_
*686 _0640_
*687 _0641_
*688 _0642_
*689 _0643_
*690 _0644_
*691 _0645_
*692 _0646_
*693 _0647_
*694 _0648_
*695 _0649_
*696 _0650_
*697 _0651_
*698 _0652_
*699 _0653_
*700 _0654_
*701 _0655_
*702 _0656_
*703 _0657_
*704 _0658_
*705 _0659_
*706 _0660_
*707 _0661_
*708 _0662_
*709 _0663_
*710 _0664_
*711 _0665_
*712 _0666_
*713 _0667_
*714 _0668_
*715 _0669_
*716 _0670_
*717 _0671_
*718 _0672_
*719 _0673_
*720 _0674_
*721 _0675_
*722 _0676_
*723 _0677_
*724 ad\.a\[0\]
*725 ad\.a\[10\]
*726 ad\.a\[11\]
*727 ad\.a\[12\]
*728 ad\.a\[13\]
*729 ad\.a\[14\]
*730 ad\.a\[15\]
*731 ad\.a\[16\]
*732 ad\.a\[17\]
*733 ad\.a\[18\]
*734 ad\.a\[19\]
*735 ad\.a\[1\]
*736 ad\.a\[20\]
*737 ad\.a\[21\]
*738 ad\.a\[22\]
*739 ad\.a\[23\]
*740 ad\.a\[24\]
*741 ad\.a\[25\]
*742 ad\.a\[26\]
*743 ad\.a\[27\]
*744 ad\.a\[28\]
*745 ad\.a\[29\]
*746 ad\.a\[2\]
*747 ad\.a\[30\]
*748 ad\.a\[31\]
*749 ad\.a\[3\]
*750 ad\.a\[4\]
*751 ad\.a\[5\]
*752 ad\.a\[6\]
*753 ad\.a\[7\]
*754 ad\.a\[8\]
*755 ad\.a\[9\]
*756 clknet_0_clk
*757 clknet_3_0__leaf_clk
*758 clknet_3_1__leaf_clk
*759 clknet_3_2__leaf_clk
*760 clknet_3_3__leaf_clk
*761 clknet_3_4__leaf_clk
*762 clknet_3_5__leaf_clk
*763 clknet_3_6__leaf_clk
*764 clknet_3_7__leaf_clk
*765 mode
*766 mu\.a\[0\]
*767 mu\.a\[1\]
*768 mu\.a\[2\]
*769 mu\.a\[3\]
*770 mu\.a\[4\]
*771 mu\.a\[5\]
*772 mu\.a\[6\]
*773 net1
*774 net10
*775 net11
*776 net12
*777 net13
*778 net14
*779 net15
*780 net16
*781 net17
*782 net18
*783 net19
*784 net2
*785 net20
*786 net21
*787 net22
*788 net23
*789 net24
*790 net25
*791 net26
*792 net27
*793 net28
*794 net29
*795 net3
*796 net30
*797 net31
*798 net32
*799 net33
*800 net34
*801 net35
*802 net36
*803 net37
*804 net38
*805 net39
*806 net4
*807 net40
*808 net41
*809 net42
*810 net43
*811 net44
*812 net45
*813 net46
*814 net47
*815 net48
*816 net49
*817 net5
*818 net50
*819 net51
*820 net52
*821 net53
*822 net54
*823 net55
*824 net56
*825 net57
*826 net58
*827 net59
*828 net6
*829 net60
*830 net61
*831 net62
*832 net63
*833 net64
*834 net65
*835 net66
*836 net67
*837 net68
*838 net69
*839 net7
*840 net70
*841 net71
*842 net72
*843 net73
*844 net8
*845 net9
*846 result\[0\]
*847 result\[10\]
*848 result\[11\]
*849 result\[12\]
*850 result\[13\]
*851 result\[14\]
*852 result\[15\]
*853 result\[16\]
*854 result\[17\]
*855 result\[18\]
*856 result\[19\]
*857 result\[1\]
*858 result\[20\]
*859 result\[21\]
*860 result\[22\]
*861 result\[23\]
*862 result\[24\]
*863 result\[25\]
*864 result\[26\]
*865 result\[27\]
*866 result\[28\]
*867 result\[29\]
*868 result\[2\]
*869 result\[30\]
*870 result\[31\]
*871 result\[3\]
*872 result\[4\]
*873 result\[5\]
*874 result\[6\]
*875 result\[7\]
*876 result\[8\]
*877 result\[9\]
*878 state\[0\]
*879 state\[1\]
*880 state\[2\]
*881 FILLER_0_0_109
*882 FILLER_0_0_113
*883 FILLER_0_0_125
*884 FILLER_0_0_137
*885 FILLER_0_0_141
*886 FILLER_0_0_15
*887 FILLER_0_0_153
*888 FILLER_0_0_165
*889 FILLER_0_0_169
*890 FILLER_0_0_181
*891 FILLER_0_0_193
*892 FILLER_0_0_197
*893 FILLER_0_0_209
*894 FILLER_0_0_221
*895 FILLER_0_0_225
*896 FILLER_0_0_237
*897 FILLER_0_0_249
*898 FILLER_0_0_253
*899 FILLER_0_0_265
*900 FILLER_0_0_27
*901 FILLER_0_0_277
*902 FILLER_0_0_281
*903 FILLER_0_0_29
*904 FILLER_0_0_293
*905 FILLER_0_0_3
*906 FILLER_0_0_305
*907 FILLER_0_0_309
*908 FILLER_0_0_321
*909 FILLER_0_0_333
*910 FILLER_0_0_41
*911 FILLER_0_0_53
*912 FILLER_0_0_57
*913 FILLER_0_0_69
*914 FILLER_0_0_81
*915 FILLER_0_0_85
*916 FILLER_0_0_97
*917 FILLER_0_10_105
*918 FILLER_0_10_122
*919 FILLER_0_10_134
*920 FILLER_0_10_156
*921 FILLER_0_10_164
*922 FILLER_0_10_176
*923 FILLER_0_10_195
*924 FILLER_0_10_203
*925 FILLER_0_10_215
*926 FILLER_0_10_237
*927 FILLER_0_10_250
*928 FILLER_0_10_269
*929 FILLER_0_10_281
*930 FILLER_0_10_293
*931 FILLER_0_10_3
*932 FILLER_0_10_305
*933 FILLER_0_10_309
*934 FILLER_0_10_321
*935 FILLER_0_10_333
*936 FILLER_0_10_37
*937 FILLER_0_10_49
*938 FILLER_0_10_55
*939 FILLER_0_10_80
*940 FILLER_0_10_85
*941 FILLER_0_10_97
*942 FILLER_0_11_113
*943 FILLER_0_11_15
*944 FILLER_0_11_161
*945 FILLER_0_11_167
*946 FILLER_0_11_185
*947 FILLER_0_11_216
*948 FILLER_0_11_240
*949 FILLER_0_11_249
*950 FILLER_0_11_267
*951 FILLER_0_11_279
*952 FILLER_0_11_281
*953 FILLER_0_11_293
*954 FILLER_0_11_3
*955 FILLER_0_11_305
*956 FILLER_0_11_317
*957 FILLER_0_11_329
*958 FILLER_0_11_35
*959 FILLER_0_11_47
*960 FILLER_0_11_55
*961 FILLER_0_11_57
*962 FILLER_0_11_86
*963 FILLER_0_11_90
*964 FILLER_0_12_126
*965 FILLER_0_12_138
*966 FILLER_0_12_15
*967 FILLER_0_12_157
*968 FILLER_0_12_168
*969 FILLER_0_12_197
*970 FILLER_0_12_209
*971 FILLER_0_12_239
*972 FILLER_0_12_24
*973 FILLER_0_12_249
*974 FILLER_0_12_277
*975 FILLER_0_12_289
*976 FILLER_0_12_3
*977 FILLER_0_12_301
*978 FILLER_0_12_307
*979 FILLER_0_12_309
*980 FILLER_0_12_321
*981 FILLER_0_12_333
*982 FILLER_0_12_34
*983 FILLER_0_12_78
*984 FILLER_0_12_93
*985 FILLER_0_13_106
*986 FILLER_0_13_113
*987 FILLER_0_13_125
*988 FILLER_0_13_15
*989 FILLER_0_13_152
*990 FILLER_0_13_169
*991 FILLER_0_13_185
*992 FILLER_0_13_199
*993 FILLER_0_13_211
*994 FILLER_0_13_247
*995 FILLER_0_13_255
*996 FILLER_0_13_265
*997 FILLER_0_13_277
*998 FILLER_0_13_281
*999 FILLER_0_13_293
*1000 FILLER_0_13_3
*1001 FILLER_0_13_305
*1002 FILLER_0_13_317
*1003 FILLER_0_13_329
*1004 FILLER_0_13_39
*1005 FILLER_0_13_47
*1006 FILLER_0_13_55
*1007 FILLER_0_13_63
*1008 FILLER_0_13_78
*1009 FILLER_0_13_87
*1010 FILLER_0_14_110
*1011 FILLER_0_14_118
*1012 FILLER_0_14_129
*1013 FILLER_0_14_138
*1014 FILLER_0_14_153
*1015 FILLER_0_14_161
*1016 FILLER_0_14_166
*1017 FILLER_0_14_171
*1018 FILLER_0_14_184
*1019 FILLER_0_14_197
*1020 FILLER_0_14_204
*1021 FILLER_0_14_216
*1022 FILLER_0_14_237
*1023 FILLER_0_14_249
*1024 FILLER_0_14_253
*1025 FILLER_0_14_265
*1026 FILLER_0_14_27
*1027 FILLER_0_14_277
*1028 FILLER_0_14_289
*1029 FILLER_0_14_298
*1030 FILLER_0_14_3
*1031 FILLER_0_14_306
*1032 FILLER_0_14_309
*1033 FILLER_0_14_321
*1034 FILLER_0_14_333
*1035 FILLER_0_14_39
*1036 FILLER_0_14_47
*1037 FILLER_0_14_83
*1038 FILLER_0_14_85
*1039 FILLER_0_14_93
*1040 FILLER_0_15_113
*1041 FILLER_0_15_121
*1042 FILLER_0_15_130
*1043 FILLER_0_15_147
*1044 FILLER_0_15_167
*1045 FILLER_0_15_174
*1046 FILLER_0_15_186
*1047 FILLER_0_15_209
*1048 FILLER_0_15_221
*1049 FILLER_0_15_225
*1050 FILLER_0_15_237
*1051 FILLER_0_15_249
*1052 FILLER_0_15_273
*1053 FILLER_0_15_279
*1054 FILLER_0_15_281
*1055 FILLER_0_15_3
*1056 FILLER_0_15_310
*1057 FILLER_0_15_322
*1058 FILLER_0_15_334
*1059 FILLER_0_15_38
*1060 FILLER_0_15_50
*1061 FILLER_0_16_113
*1062 FILLER_0_16_123
*1063 FILLER_0_16_139
*1064 FILLER_0_16_147
*1065 FILLER_0_16_15
*1066 FILLER_0_16_155
*1067 FILLER_0_16_173
*1068 FILLER_0_16_185
*1069 FILLER_0_16_211
*1070 FILLER_0_16_222
*1071 FILLER_0_16_234
*1072 FILLER_0_16_242
*1073 FILLER_0_16_27
*1074 FILLER_0_16_275
*1075 FILLER_0_16_283
*1076 FILLER_0_16_29
*1077 FILLER_0_16_290
*1078 FILLER_0_16_3
*1079 FILLER_0_16_307
*1080 FILLER_0_16_314
*1081 FILLER_0_16_326
*1082 FILLER_0_16_334
*1083 FILLER_0_16_42
*1084 FILLER_0_16_54
*1085 FILLER_0_16_81
*1086 FILLER_0_16_96
*1087 FILLER_0_17_109
*1088 FILLER_0_17_113
*1089 FILLER_0_17_124
*1090 FILLER_0_17_15
*1091 FILLER_0_17_165
*1092 FILLER_0_17_180
*1093 FILLER_0_17_187
*1094 FILLER_0_17_192
*1095 FILLER_0_17_214
*1096 FILLER_0_17_222
*1097 FILLER_0_17_225
*1098 FILLER_0_17_237
*1099 FILLER_0_17_268
*1100 FILLER_0_17_281
*1101 FILLER_0_17_289
*1102 FILLER_0_17_293
*1103 FILLER_0_17_3
*1104 FILLER_0_17_315
*1105 FILLER_0_17_327
*1106 FILLER_0_17_44
*1107 FILLER_0_17_87
*1108 FILLER_0_18_100
*1109 FILLER_0_18_107
*1110 FILLER_0_18_119
*1111 FILLER_0_18_125
*1112 FILLER_0_18_135
*1113 FILLER_0_18_139
*1114 FILLER_0_18_141
*1115 FILLER_0_18_153
*1116 FILLER_0_18_187
*1117 FILLER_0_18_195
*1118 FILLER_0_18_200
*1119 FILLER_0_18_208
*1120 FILLER_0_18_22
*1121 FILLER_0_18_236
*1122 FILLER_0_18_240
*1123 FILLER_0_18_248
*1124 FILLER_0_18_253
*1125 FILLER_0_18_265
*1126 FILLER_0_18_277
*1127 FILLER_0_18_289
*1128 FILLER_0_18_293
*1129 FILLER_0_18_3
*1130 FILLER_0_18_304
*1131 FILLER_0_18_309
*1132 FILLER_0_18_316
*1133 FILLER_0_18_329
*1134 FILLER_0_18_44
*1135 FILLER_0_18_56
*1136 FILLER_0_18_75
*1137 FILLER_0_18_83
*1138 FILLER_0_18_85
*1139 FILLER_0_18_91
*1140 FILLER_0_19_107
*1141 FILLER_0_19_11
*1142 FILLER_0_19_111
*1143 FILLER_0_19_113
*1144 FILLER_0_19_158
*1145 FILLER_0_19_165
*1146 FILLER_0_19_175
*1147 FILLER_0_19_187
*1148 FILLER_0_19_199
*1149 FILLER_0_19_217
*1150 FILLER_0_19_225
*1151 FILLER_0_19_236
*1152 FILLER_0_19_276
*1153 FILLER_0_19_29
*1154 FILLER_0_19_3
*1155 FILLER_0_19_329
*1156 FILLER_0_19_42
*1157 FILLER_0_19_54
*1158 FILLER_0_19_57
*1159 FILLER_0_19_77
*1160 FILLER_0_19_89
*1161 FILLER_0_1_105
*1162 FILLER_0_1_111
*1163 FILLER_0_1_113
*1164 FILLER_0_1_125
*1165 FILLER_0_1_137
*1166 FILLER_0_1_149
*1167 FILLER_0_1_15
*1168 FILLER_0_1_161
*1169 FILLER_0_1_167
*1170 FILLER_0_1_169
*1171 FILLER_0_1_181
*1172 FILLER_0_1_193
*1173 FILLER_0_1_205
*1174 FILLER_0_1_217
*1175 FILLER_0_1_223
*1176 FILLER_0_1_225
*1177 FILLER_0_1_237
*1178 FILLER_0_1_249
*1179 FILLER_0_1_261
*1180 FILLER_0_1_27
*1181 FILLER_0_1_273
*1182 FILLER_0_1_279
*1183 FILLER_0_1_281
*1184 FILLER_0_1_293
*1185 FILLER_0_1_3
*1186 FILLER_0_1_305
*1187 FILLER_0_1_317
*1188 FILLER_0_1_329
*1189 FILLER_0_1_39
*1190 FILLER_0_1_51
*1191 FILLER_0_1_55
*1192 FILLER_0_1_57
*1193 FILLER_0_1_69
*1194 FILLER_0_1_81
*1195 FILLER_0_1_93
*1196 FILLER_0_20_107
*1197 FILLER_0_20_120
*1198 FILLER_0_20_135
*1199 FILLER_0_20_139
*1200 FILLER_0_20_141
*1201 FILLER_0_20_15
*1202 FILLER_0_20_151
*1203 FILLER_0_20_170
*1204 FILLER_0_20_188
*1205 FILLER_0_20_197
*1206 FILLER_0_20_203
*1207 FILLER_0_20_220
*1208 FILLER_0_20_234
*1209 FILLER_0_20_246
*1210 FILLER_0_20_27
*1211 FILLER_0_20_287
*1212 FILLER_0_20_3
*1213 FILLER_0_20_306
*1214 FILLER_0_20_309
*1215 FILLER_0_20_37
*1216 FILLER_0_20_45
*1217 FILLER_0_20_58
*1218 FILLER_0_20_73
*1219 FILLER_0_21_107
*1220 FILLER_0_21_121
*1221 FILLER_0_21_130
*1222 FILLER_0_21_138
*1223 FILLER_0_21_186
*1224 FILLER_0_21_198
*1225 FILLER_0_21_228
*1226 FILLER_0_21_234
*1227 FILLER_0_21_248
*1228 FILLER_0_21_254
*1229 FILLER_0_21_267
*1230 FILLER_0_21_275
*1231 FILLER_0_21_279
*1232 FILLER_0_21_281
*1233 FILLER_0_21_29
*1234 FILLER_0_21_3
*1235 FILLER_0_21_303
*1236 FILLER_0_21_315
*1237 FILLER_0_21_329
*1238 FILLER_0_21_40
*1239 FILLER_0_21_44
*1240 FILLER_0_21_48
*1241 FILLER_0_21_57
*1242 FILLER_0_21_77
*1243 FILLER_0_21_89
*1244 FILLER_0_21_97
*1245 FILLER_0_22_109
*1246 FILLER_0_22_121
*1247 FILLER_0_22_133
*1248 FILLER_0_22_139
*1249 FILLER_0_22_141
*1250 FILLER_0_22_15
*1251 FILLER_0_22_179
*1252 FILLER_0_22_191
*1253 FILLER_0_22_195
*1254 FILLER_0_22_197
*1255 FILLER_0_22_209
*1256 FILLER_0_22_218
*1257 FILLER_0_22_251
*1258 FILLER_0_22_253
*1259 FILLER_0_22_265
*1260 FILLER_0_22_27
*1261 FILLER_0_22_292
*1262 FILLER_0_22_3
*1263 FILLER_0_22_304
*1264 FILLER_0_22_309
*1265 FILLER_0_22_321
*1266 FILLER_0_22_333
*1267 FILLER_0_22_55
*1268 FILLER_0_22_75
*1269 FILLER_0_22_80
*1270 FILLER_0_22_85
*1271 FILLER_0_22_97
*1272 FILLER_0_23_101
*1273 FILLER_0_23_109
*1274 FILLER_0_23_113
*1275 FILLER_0_23_130
*1276 FILLER_0_23_142
*1277 FILLER_0_23_15
*1278 FILLER_0_23_169
*1279 FILLER_0_23_181
*1280 FILLER_0_23_193
*1281 FILLER_0_23_207
*1282 FILLER_0_23_214
*1283 FILLER_0_23_222
*1284 FILLER_0_23_228
*1285 FILLER_0_23_236
*1286 FILLER_0_23_244
*1287 FILLER_0_23_275
*1288 FILLER_0_23_279
*1289 FILLER_0_23_281
*1290 FILLER_0_23_289
*1291 FILLER_0_23_29
*1292 FILLER_0_23_3
*1293 FILLER_0_23_301
*1294 FILLER_0_23_309
*1295 FILLER_0_23_325
*1296 FILLER_0_23_333
*1297 FILLER_0_23_38
*1298 FILLER_0_23_50
*1299 FILLER_0_23_57
*1300 FILLER_0_23_68
*1301 FILLER_0_23_74
*1302 FILLER_0_23_78
*1303 FILLER_0_24_101
*1304 FILLER_0_24_113
*1305 FILLER_0_24_117
*1306 FILLER_0_24_134
*1307 FILLER_0_24_141
*1308 FILLER_0_24_149
*1309 FILLER_0_24_161
*1310 FILLER_0_24_173
*1311 FILLER_0_24_181
*1312 FILLER_0_24_197
*1313 FILLER_0_24_20
*1314 FILLER_0_24_221
*1315 FILLER_0_24_248
*1316 FILLER_0_24_260
*1317 FILLER_0_24_264
*1318 FILLER_0_24_277
*1319 FILLER_0_24_289
*1320 FILLER_0_24_29
*1321 FILLER_0_24_295
*1322 FILLER_0_24_299
*1323 FILLER_0_24_3
*1324 FILLER_0_24_306
*1325 FILLER_0_24_332
*1326 FILLER_0_24_45
*1327 FILLER_0_24_57
*1328 FILLER_0_24_69
*1329 FILLER_0_24_81
*1330 FILLER_0_24_85
*1331 FILLER_0_25_11
*1332 FILLER_0_25_110
*1333 FILLER_0_25_113
*1334 FILLER_0_25_146
*1335 FILLER_0_25_158
*1336 FILLER_0_25_164
*1337 FILLER_0_25_169
*1338 FILLER_0_25_176
*1339 FILLER_0_25_186
*1340 FILLER_0_25_194
*1341 FILLER_0_25_206
*1342 FILLER_0_25_220
*1343 FILLER_0_25_236
*1344 FILLER_0_25_240
*1345 FILLER_0_25_263
*1346 FILLER_0_25_284
*1347 FILLER_0_25_288
*1348 FILLER_0_25_297
*1349 FILLER_0_25_3
*1350 FILLER_0_25_30
*1351 FILLER_0_25_328
*1352 FILLER_0_25_334
*1353 FILLER_0_25_40
*1354 FILLER_0_25_54
*1355 FILLER_0_25_73
*1356 FILLER_0_25_81
*1357 FILLER_0_25_98
*1358 FILLER_0_26_109
*1359 FILLER_0_26_11
*1360 FILLER_0_26_138
*1361 FILLER_0_26_141
*1362 FILLER_0_26_153
*1363 FILLER_0_26_157
*1364 FILLER_0_26_173
*1365 FILLER_0_26_195
*1366 FILLER_0_26_225
*1367 FILLER_0_26_241
*1368 FILLER_0_26_245
*1369 FILLER_0_26_295
*1370 FILLER_0_26_3
*1371 FILLER_0_26_307
*1372 FILLER_0_26_314
*1373 FILLER_0_26_324
*1374 FILLER_0_26_332
*1375 FILLER_0_26_48
*1376 FILLER_0_26_73
*1377 FILLER_0_26_81
*1378 FILLER_0_26_85
*1379 FILLER_0_26_97
*1380 FILLER_0_27_107
*1381 FILLER_0_27_111
*1382 FILLER_0_27_113
*1383 FILLER_0_27_129
*1384 FILLER_0_27_145
*1385 FILLER_0_27_157
*1386 FILLER_0_27_165
*1387 FILLER_0_27_172
*1388 FILLER_0_27_192
*1389 FILLER_0_27_200
*1390 FILLER_0_27_212
*1391 FILLER_0_27_22
*1392 FILLER_0_27_222
*1393 FILLER_0_27_225
*1394 FILLER_0_27_231
*1395 FILLER_0_27_237
*1396 FILLER_0_27_245
*1397 FILLER_0_27_257
*1398 FILLER_0_27_26
*1399 FILLER_0_27_269
*1400 FILLER_0_27_281
*1401 FILLER_0_27_289
*1402 FILLER_0_27_3
*1403 FILLER_0_27_304
*1404 FILLER_0_27_316
*1405 FILLER_0_27_323
*1406 FILLER_0_27_40
*1407 FILLER_0_27_48
*1408 FILLER_0_27_90
*1409 FILLER_0_28_11
*1410 FILLER_0_28_139
*1411 FILLER_0_28_147
*1412 FILLER_0_28_159
*1413 FILLER_0_28_171
*1414 FILLER_0_28_177
*1415 FILLER_0_28_182
*1416 FILLER_0_28_194
*1417 FILLER_0_28_197
*1418 FILLER_0_28_209
*1419 FILLER_0_28_215
*1420 FILLER_0_28_227
*1421 FILLER_0_28_235
*1422 FILLER_0_28_248
*1423 FILLER_0_28_261
*1424 FILLER_0_28_273
*1425 FILLER_0_28_285
*1426 FILLER_0_28_29
*1427 FILLER_0_28_296
*1428 FILLER_0_28_3
*1429 FILLER_0_28_301
*1430 FILLER_0_28_307
*1431 FILLER_0_28_309
*1432 FILLER_0_28_45
*1433 FILLER_0_28_57
*1434 FILLER_0_28_75
*1435 FILLER_0_28_83
*1436 FILLER_0_28_85
*1437 FILLER_0_28_97
*1438 FILLER_0_29_113
*1439 FILLER_0_29_122
*1440 FILLER_0_29_15
*1441 FILLER_0_29_152
*1442 FILLER_0_29_164
*1443 FILLER_0_29_191
*1444 FILLER_0_29_203
*1445 FILLER_0_29_235
*1446 FILLER_0_29_239
*1447 FILLER_0_29_243
*1448 FILLER_0_29_249
*1449 FILLER_0_29_260
*1450 FILLER_0_29_27
*1451 FILLER_0_29_272
*1452 FILLER_0_29_281
*1453 FILLER_0_29_295
*1454 FILLER_0_29_3
*1455 FILLER_0_29_311
*1456 FILLER_0_29_39
*1457 FILLER_0_29_51
*1458 FILLER_0_29_55
*1459 FILLER_0_29_57
*1460 FILLER_0_29_69
*1461 FILLER_0_29_86
*1462 FILLER_0_29_98
*1463 FILLER_0_2_109
*1464 FILLER_0_2_121
*1465 FILLER_0_2_133
*1466 FILLER_0_2_139
*1467 FILLER_0_2_141
*1468 FILLER_0_2_15
*1469 FILLER_0_2_153
*1470 FILLER_0_2_165
*1471 FILLER_0_2_177
*1472 FILLER_0_2_189
*1473 FILLER_0_2_195
*1474 FILLER_0_2_197
*1475 FILLER_0_2_209
*1476 FILLER_0_2_221
*1477 FILLER_0_2_233
*1478 FILLER_0_2_245
*1479 FILLER_0_2_251
*1480 FILLER_0_2_253
*1481 FILLER_0_2_265
*1482 FILLER_0_2_27
*1483 FILLER_0_2_277
*1484 FILLER_0_2_289
*1485 FILLER_0_2_29
*1486 FILLER_0_2_3
*1487 FILLER_0_2_301
*1488 FILLER_0_2_307
*1489 FILLER_0_2_309
*1490 FILLER_0_2_321
*1491 FILLER_0_2_333
*1492 FILLER_0_2_41
*1493 FILLER_0_2_53
*1494 FILLER_0_2_65
*1495 FILLER_0_2_77
*1496 FILLER_0_2_83
*1497 FILLER_0_2_85
*1498 FILLER_0_2_97
*1499 FILLER_0_30_105
*1500 FILLER_0_30_120
*1501 FILLER_0_30_129
*1502 FILLER_0_30_139
*1503 FILLER_0_30_149
*1504 FILLER_0_30_15
*1505 FILLER_0_30_161
*1506 FILLER_0_30_180
*1507 FILLER_0_30_192
*1508 FILLER_0_30_197
*1509 FILLER_0_30_218
*1510 FILLER_0_30_222
*1511 FILLER_0_30_248
*1512 FILLER_0_30_25
*1513 FILLER_0_30_253
*1514 FILLER_0_30_278
*1515 FILLER_0_30_287
*1516 FILLER_0_30_29
*1517 FILLER_0_30_299
*1518 FILLER_0_30_3
*1519 FILLER_0_30_327
*1520 FILLER_0_30_38
*1521 FILLER_0_30_47
*1522 FILLER_0_30_78
*1523 FILLER_0_30_97
*1524 FILLER_0_31_101
*1525 FILLER_0_31_105
*1526 FILLER_0_31_123
*1527 FILLER_0_31_138
*1528 FILLER_0_31_150
*1529 FILLER_0_31_162
*1530 FILLER_0_31_169
*1531 FILLER_0_31_198
*1532 FILLER_0_31_204
*1533 FILLER_0_31_208
*1534 FILLER_0_31_217
*1535 FILLER_0_31_223
*1536 FILLER_0_31_225
*1537 FILLER_0_31_237
*1538 FILLER_0_31_249
*1539 FILLER_0_31_278
*1540 FILLER_0_31_295
*1541 FILLER_0_31_3
*1542 FILLER_0_31_306
*1543 FILLER_0_31_312
*1544 FILLER_0_31_65
*1545 FILLER_0_32_119
*1546 FILLER_0_32_131
*1547 FILLER_0_32_139
*1548 FILLER_0_32_149
*1549 FILLER_0_32_15
*1550 FILLER_0_32_161
*1551 FILLER_0_32_169
*1552 FILLER_0_32_175
*1553 FILLER_0_32_185
*1554 FILLER_0_32_197
*1555 FILLER_0_32_209
*1556 FILLER_0_32_226
*1557 FILLER_0_32_24
*1558 FILLER_0_32_244
*1559 FILLER_0_32_248
*1560 FILLER_0_32_253
*1561 FILLER_0_32_263
*1562 FILLER_0_32_280
*1563 FILLER_0_32_29
*1564 FILLER_0_32_292
*1565 FILLER_0_32_3
*1566 FILLER_0_32_305
*1567 FILLER_0_32_331
*1568 FILLER_0_32_41
*1569 FILLER_0_32_56
*1570 FILLER_0_32_60
*1571 FILLER_0_32_74
*1572 FILLER_0_32_82
*1573 FILLER_0_32_85
*1574 FILLER_0_32_89
*1575 FILLER_0_32_98
*1576 FILLER_0_33_104
*1577 FILLER_0_33_138
*1578 FILLER_0_33_15
*1579 FILLER_0_33_152
*1580 FILLER_0_33_164
*1581 FILLER_0_33_169
*1582 FILLER_0_33_181
*1583 FILLER_0_33_189
*1584 FILLER_0_33_204
*1585 FILLER_0_33_216
*1586 FILLER_0_33_23
*1587 FILLER_0_33_239
*1588 FILLER_0_33_247
*1589 FILLER_0_33_259
*1590 FILLER_0_33_271
*1591 FILLER_0_33_279
*1592 FILLER_0_33_281
*1593 FILLER_0_33_3
*1594 FILLER_0_33_309
*1595 FILLER_0_33_317
*1596 FILLER_0_33_324
*1597 FILLER_0_33_332
*1598 FILLER_0_33_35
*1599 FILLER_0_33_46
*1600 FILLER_0_33_54
*1601 FILLER_0_33_57
*1602 FILLER_0_33_76
*1603 FILLER_0_33_96
*1604 FILLER_0_34_103
*1605 FILLER_0_34_116
*1606 FILLER_0_34_131
*1607 FILLER_0_34_15
*1608 FILLER_0_34_157
*1609 FILLER_0_34_169
*1610 FILLER_0_34_180
*1611 FILLER_0_34_206
*1612 FILLER_0_34_218
*1613 FILLER_0_34_226
*1614 FILLER_0_34_232
*1615 FILLER_0_34_244
*1616 FILLER_0_34_253
*1617 FILLER_0_34_265
*1618 FILLER_0_34_272
*1619 FILLER_0_34_284
*1620 FILLER_0_34_288
*1621 FILLER_0_34_293
*1622 FILLER_0_34_3
*1623 FILLER_0_34_305
*1624 FILLER_0_34_309
*1625 FILLER_0_34_328
*1626 FILLER_0_34_334
*1627 FILLER_0_34_35
*1628 FILLER_0_34_43
*1629 FILLER_0_34_55
*1630 FILLER_0_34_67
*1631 FILLER_0_34_85
*1632 FILLER_0_34_97
*1633 FILLER_0_35_107
*1634 FILLER_0_35_134
*1635 FILLER_0_35_142
*1636 FILLER_0_35_15
*1637 FILLER_0_35_159
*1638 FILLER_0_35_166
*1639 FILLER_0_35_169
*1640 FILLER_0_35_181
*1641 FILLER_0_35_219
*1642 FILLER_0_35_223
*1643 FILLER_0_35_225
*1644 FILLER_0_35_248
*1645 FILLER_0_35_252
*1646 FILLER_0_35_277
*1647 FILLER_0_35_295
*1648 FILLER_0_35_299
*1649 FILLER_0_35_3
*1650 FILLER_0_35_30
*1651 FILLER_0_35_306
*1652 FILLER_0_35_314
*1653 FILLER_0_35_323
*1654 FILLER_0_35_47
*1655 FILLER_0_35_55
*1656 FILLER_0_35_57
*1657 FILLER_0_35_87
*1658 FILLER_0_35_99
*1659 FILLER_0_36_104
*1660 FILLER_0_36_11
*1661 FILLER_0_36_122
*1662 FILLER_0_36_129
*1663 FILLER_0_36_137
*1664 FILLER_0_36_141
*1665 FILLER_0_36_149
*1666 FILLER_0_36_168
*1667 FILLER_0_36_182
*1668 FILLER_0_36_190
*1669 FILLER_0_36_203
*1670 FILLER_0_36_237
*1671 FILLER_0_36_24
*1672 FILLER_0_36_250
*1673 FILLER_0_36_253
*1674 FILLER_0_36_293
*1675 FILLER_0_36_3
*1676 FILLER_0_36_307
*1677 FILLER_0_36_327
*1678 FILLER_0_36_50
*1679 FILLER_0_36_54
*1680 FILLER_0_36_62
*1681 FILLER_0_36_82
*1682 FILLER_0_36_85
*1683 FILLER_0_36_96
*1684 FILLER_0_37_105
*1685 FILLER_0_37_111
*1686 FILLER_0_37_135
*1687 FILLER_0_37_161
*1688 FILLER_0_37_186
*1689 FILLER_0_37_197
*1690 FILLER_0_37_215
*1691 FILLER_0_37_22
*1692 FILLER_0_37_223
*1693 FILLER_0_37_225
*1694 FILLER_0_37_248
*1695 FILLER_0_37_260
*1696 FILLER_0_37_279
*1697 FILLER_0_37_281
*1698 FILLER_0_37_287
*1699 FILLER_0_37_3
*1700 FILLER_0_37_311
*1701 FILLER_0_37_324
*1702 FILLER_0_37_332
*1703 FILLER_0_37_51
*1704 FILLER_0_37_57
*1705 FILLER_0_37_76
*1706 FILLER_0_38_106
*1707 FILLER_0_38_11
*1708 FILLER_0_38_113
*1709 FILLER_0_38_125
*1710 FILLER_0_38_137
*1711 FILLER_0_38_141
*1712 FILLER_0_38_147
*1713 FILLER_0_38_154
*1714 FILLER_0_38_162
*1715 FILLER_0_38_167
*1716 FILLER_0_38_169
*1717 FILLER_0_38_175
*1718 FILLER_0_38_18
*1719 FILLER_0_38_180
*1720 FILLER_0_38_192
*1721 FILLER_0_38_201
*1722 FILLER_0_38_210
*1723 FILLER_0_38_215
*1724 FILLER_0_38_22
*1725 FILLER_0_38_223
*1726 FILLER_0_38_225
*1727 FILLER_0_38_231
*1728 FILLER_0_38_239
*1729 FILLER_0_38_247
*1730 FILLER_0_38_251
*1731 FILLER_0_38_257
*1732 FILLER_0_38_262
*1733 FILLER_0_38_27
*1734 FILLER_0_38_279
*1735 FILLER_0_38_281
*1736 FILLER_0_38_286
*1737 FILLER_0_38_29
*1738 FILLER_0_38_290
*1739 FILLER_0_38_294
*1740 FILLER_0_38_3
*1741 FILLER_0_38_322
*1742 FILLER_0_38_327
*1743 FILLER_0_38_36
*1744 FILLER_0_38_43
*1745 FILLER_0_38_55
*1746 FILLER_0_38_57
*1747 FILLER_0_38_69
*1748 FILLER_0_38_81
*1749 FILLER_0_38_85
*1750 FILLER_0_38_94
*1751 FILLER_0_3_105
*1752 FILLER_0_3_111
*1753 FILLER_0_3_113