*SPEF "ieee 1481-1999"
*DESIGN "tt_um_vga_clock"
*DATE "08:59:27 Wednesday May 08, 2024"
*VENDOR "The OpenROAD Project"
*PROGRAM "OpenROAD"
*VERSION "da0053d7b0014ab9c87ea148875ff6c2a0f9b658"
*DESIGN_FLOW "NAME_SCOPE LOCAL" "PIN_CAP NONE"
*DIVIDER /
*DELIMITER :
*BUS_DELIMITER []
*T_UNIT 1 NS
*C_UNIT 1 PF
*R_UNIT 1 OHM
*L_UNIT 1 HENRY

*NAME_MAP
*3 clk
*4 ena
*5 rst_n
*6 ui_in[0]
*7 ui_in[1]
*8 ui_in[2]
*9 ui_in[3]
*10 ui_in[4]
*11 ui_in[5]
*12 ui_in[6]
*13 ui_in[7]
*14 uio_in[0]
*15 uio_in[1]
*16 uio_in[2]
*17 uio_in[3]
*18 uio_in[4]
*19 uio_in[5]
*20 uio_in[6]
*21 uio_in[7]
*22 net8
*23 net9
*24 net10
*25 net11
*26 net12
*27 net13
*28 net14
*29 net15
*30 net16
*31 net17
*32 net18
*33 net19
*34 net20
*35 net21
*36 net22
*37 net23
*38 uo_out[0]
*39 uo_out[1]
*40 uo_out[2]
*41 uo_out[3]
*42 uo_out[4]
*43 uo_out[5]
*44 uo_out[6]
*45 uo_out[7]
*46 _0000_
*47 _0001_
*48 _0002_
*49 _0003_
*50 _0004_
*51 _0005_
*52 _0006_
*53 _0007_
*54 _0008_
*55 _0009_
*56 _0010_
*57 _0011_
*58 _0012_
*59 _0013_
*60 _0014_
*61 _0015_
*62 _0016_
*63 _0017_
*64 _0018_
*65 _0019_
*66 _0020_
*67 _0021_
*68 _0022_
*69 _0023_
*70 _0024_
*71 _0025_
*72 _0026_
*73 _0027_
*74 _0028_
*75 _0029_
*76 _0030_
*77 _0031_
*78 _0032_
*79 _0033_
*80 _0034_
*81 _0035_
*82 _0036_
*83 _0037_
*84 _0038_
*85 _0039_
*86 _0040_
*87 _0041_
*88 _0042_
*89 _0043_
*90 _0044_
*91 _0045_
*92 _0046_
*93 _0047_
*94 _0048_
*95 _0049_
*96 _0050_
*97 _0051_
*98 _0052_
*99 _0053_
*100 _0054_
*101 _0055_
*102 _0056_
*103 _0057_
*104 _0058_
*105 _0059_
*106 _0060_
*107 _0061_
*108 _0062_
*109 _0063_
*110 _0064_
*111 _0065_
*112 _0066_
*113 _0067_
*114 _0068_
*115 _0069_
*116 _0070_
*117 _0071_
*118 _0072_
*119 _0073_
*120 _0074_
*121 _0075_
*122 _0076_
*123 _0077_
*124 _0078_
*125 _0079_
*126 _0080_
*127 _0081_
*128 _0082_
*129 _0083_
*130 _0084_
*131 _0085_
*132 _0086_
*133 _0087_
*134 _0088_
*135 _0089_
*136 _0090_
*137 _0091_
*138 _0092_
*139 _0093_
*140 _0094_
*141 _0095_
*142 _0096_
*143 _0097_
*144 _0098_
*145 _0099_
*146 _0100_
*147 _0101_
*148 _0102_
*149 _0103_
*150 _0104_
*151 _0105_
*152 _0106_
*153 _0107_
*154 _0108_
*155 _0109_
*156 _0110_
*157 _0111_
*158 _0112_
*159 _0113_
*160 _0114_
*161 _0115_
*162 _0116_
*163 _0117_
*164 _0118_
*165 _0119_
*166 _0120_
*167 _0121_
*168 _0122_
*169 _0123_
*170 _0124_
*171 _0125_
*172 _0126_
*173 _0127_
*174 _0128_
*175 _0129_
*176 _0130_
*177 _0131_
*178 _0132_
*179 _0133_
*180 _0134_
*181 _0135_
*182 _0136_
*183 _0137_
*184 _0138_
*185 _0139_
*186 _0140_
*187 _0141_
*188 _0142_
*189 _0143_
*190 _0144_
*191 _0145_
*192 _0146_
*193 _0147_
*194 _0148_
*195 _0149_
*196 _0150_
*197 _0151_
*198 _0152_
*199 _0153_
*200 _0154_
*201 _0155_
*202 _0156_
*203 _0157_
*204 _0158_
*205 _0159_
*206 _0160_
*207 _0161_
*208 _0162_
*209 _0163_
*210 _0164_
*211 _0165_
*212 _0166_
*213 _0167_
*214 _0168_
*215 _0169_
*216 _0170_
*217 _0171_
*218 _0172_
*219 _0173_
*220 _0174_
*221 _0175_
*222 _0176_
*223 _0177_
*224 _0178_
*225 _0179_
*226 _0180_
*227 _0181_
*228 _0182_
*229 _0183_
*230 _0184_
*231 _0185_
*232 _0186_
*233 _0187_
*234 _0188_
*235 _0189_
*236 _0190_
*237 _0191_
*238 _0192_
*239 _0193_
*240 _0194_
*241 _0195_
*242 _0196_
*243 _0197_
*244 _0198_
*245 _0199_
*246 _0200_
*247 _0201_
*248 _0202_
*249 _0203_
*250 _0204_
*251 _0205_
*252 _0206_
*253 _0207_
*254 _0208_
*255 _0209_
*256 _0210_
*257 _0211_
*258 _0212_
*259 _0213_
*260 _0214_
*261 _0215_
*262 _0216_
*263 _0217_
*264 _0218_
*265 _0219_
*266 _0220_
*267 _0221_
*268 _0222_
*269 _0223_
*270 _0224_
*271 _0225_
*272 _0226_
*273 _0227_
*274 _0228_
*275 _0229_
*276 _0230_
*277 _0231_
*278 _0232_
*279 _0233_
*280 _0234_
*281 _0235_
*282 _0236_
*283 _0237_
*284 _0238_
*285 _0239_
*286 _0240_
*287 _0241_
*288 _0242_
*289 _0243_
*290 _0244_
*291 _0245_
*292 _0246_
*293 _0247_
*294 _0248_
*295 _0249_
*296 _0250_
*297 _0251_
*298 _0252_
*299 _0253_
*300 _0254_
*301 _0255_
*302 _0256_
*303 _0257_
*304 _0258_
*305 _0259_
*306 _0260_
*307 _0261_
*308 _0262_
*309 _0263_
*310 _0264_
*311 _0265_
*312 _0266_
*313 _0267_
*314 _0268_
*315 _0269_
*316 _0270_
*317 _0271_
*318 _0272_
*319 _0273_
*320 _0274_
*321 _0275_
*322 _0276_
*323 _0277_
*324 _0278_
*325 _0279_
*326 _0280_
*327 _0281_
*328 _0282_
*329 _0283_
*330 _0284_
*331 _0285_
*332 _0286_
*333 _0287_
*334 _0288_
*335 _0289_
*336 _0290_
*337 _0291_
*338 _0292_
*339 _0293_
*340 _0294_
*341 _0295_
*342 _0296_
*343 _0297_
*344 _0298_
*345 _0299_
*346 _0300_
*347 _0301_
*348 _0302_
*349 _0303_
*350 _0304_
*351 _0305_
*352 _0306_
*353 _0307_
*354 _0308_
*355 _0309_
*356 _0310_
*357 _0311_
*358 _0312_
*359 _0313_
*360 _0314_
*361 _0315_
*362 _0316_
*363 _0317_
*364 _0318_
*365 _0319_
*366 _0320_
*367 _0321_
*368 _0322_
*369 _0323_
*370 _0324_
*371 _0325_
*372 _0326_
*373 _0327_
*374 _0328_
*375 _0329_
*376 _0330_
*377 _0331_
*378 _0332_
*379 _0333_
*380 _0334_
*381 _0335_
*382 _0336_
*383 _0337_
*384 _0338_
*385 _0339_
*386 _0340_
*387 _0341_
*388 _0342_
*389 _0343_
*390 _0344_
*391 _0345_
*392 _0346_
*393 _0347_
*394 _0348_
*395 _0349_
*396 _0350_
*397 _0351_
*398 _0352_
*399 _0353_
*400 _0354_
*401 _0355_
*402 _0356_
*403 _0357_
*404 _0358_
*405 _0359_
*406 _0360_
*407 _0361_
*408 _0362_
*409 _0363_
*410 _0364_
*411 _0365_
*412 _0366_
*413 _0367_
*414 _0368_
*415 _0369_
*416 _0370_
*417 _0371_
*418 _0372_
*419 _0373_
*420 _0374_
*421 _0375_
*422 _0376_
*423 _0377_
*424 _0378_
*425 _0379_
*426 _0380_
*427 _0381_
*428 _0382_
*429 _0383_
*430 _0384_
*431 _0385_
*432 _0386_
*433 _0387_
*434 _0388_
*435 _0389_
*436 _0390_
*437 _0391_
*438 _0392_
*439 _0393_
*440 _0394_
*441 _0395_
*442 _0396_
*443 _0397_
*444 _0398_
*445 _0399_
*446 _0400_
*447 _0401_
*448 _0402_
*449 _0403_
*450 _0404_
*451 _0405_
*452 _0406_
*453 _0407_
*454 _0408_
*455 _0409_
*456 _0410_
*457 _0411_
*458 _0412_
*459 _0413_
*460 _0414_
*461 _0415_
*462 _0416_
*463 _0417_
*464 _0418_
*465 _0419_
*466 _0420_
*467 _0421_
*468 _0422_
*469 _0423_
*470 _0424_
*471 _0425_
*472 _0426_
*473 _0427_
*474 _0428_
*475 _0429_
*476 _0430_
*477 _0431_
*478 _0432_
*479 _0433_
*480 _0434_
*481 _0435_
*482 _0436_
*483 _0437_
*484 _0438_
*485 _0439_
*486 _0440_
*487 _0441_
*488 _0442_
*489 _0443_
*490 _0444_
*491 _0445_
*492 _0446_
*493 _0447_
*494 _0448_
*495 _0449_
*496 _0450_
*497 _0451_
*498 _0452_
*499 _0453_
*500 _0454_
*501 _0455_
*502 _0456_
*503 _0457_
*504 _0458_
*505 _0459_
*506 _0460_
*507 _0461_
*508 _0462_
*509 _0463_
*510 _0464_
*511 _0465_
*512 _0466_
*513 _0467_
*514 _0468_
*515 _0469_
*516 _0470_
*517 _0471_
*518 _0472_
*519 _0473_
*520 _0474_
*521 _0475_
*522 _0476_
*523 _0477_
*524 _0478_
*525 _0479_
*526 _0480_
*527 _0481_
*528 _0482_
*529 _0483_
*530 _0484_
*531 _0485_
*532 _0486_
*533 _0487_
*534 _0488_
*535 _0489_
*536 _0490_
*537 _0491_
*538 _0492_
*539 _0493_
*540 _0494_
*541 _0495_
*542 _0496_
*543 _0497_
*544 _0498_
*545 _0499_
*546 _0500_
*547 _0501_
*548 _0502_
*549 _0503_
*550 _0504_
*551 _0505_
*552 _0506_
*553 _0507_
*554 _0508_
*555 _0509_
*556 _0510_
*557 _0511_
*558 _0512_
*559 _0513_
*560 _0514_
*561 _0515_
*562 _0516_
*563 _0517_
*564 _0518_
*565 _0519_
*566 _0520_
*567 _0521_
*568 _0522_
*569 _0523_
*570 _0524_
*571 _0525_
*572 _0526_
*573 _0527_
*574 _0528_
*575 _0529_
*576 _0530_
*577 _0531_
*578 _0532_
*579 _0533_
*580 _0534_
*581 _0535_
*582 _0536_
*583 _0537_
*584 _0538_
*585 _0539_
*586 _0540_
*587 _0541_
*588 _0542_
*589 _0543_
*590 _0544_
*591 _0545_
*592 _0546_
*593 _0547_
*594 _0548_
*595 _0549_
*596 _0550_
*597 _0551_
*598 _0552_
*599 _0553_
*600 _0554_
*601 _0555_
*602 _0556_
*603 _0557_
*604 _0558_
*605 _0559_
*606 _0560_
*607 _0561_
*608 _0562_
*609 _0563_
*610 _0564_
*611 _0565_
*612 _0566_
*613 _0567_
*614 _0568_
*615 _0569_
*616 _0570_
*617 _0571_
*618 _0572_
*619 _0573_
*620 _0574_
*621 _0575_
*622 _0576_
*623 _0577_
*624 _0578_
*625 _0579_
*626 _0580_
*627 _0581_
*628 _0582_
*629 _0583_
*630 _0584_
*631 _0585_
*632 _0586_
*633 _0587_
*634 _0588_
*635 _0589_
*636 _0590_
*637 _0591_
*638 _0592_
*639 _0593_
*640 _0594_
*641 _0595_
*642 _0596_
*643 _0597_
*644 _0598_
*645 _0599_
*646 _0600_
*647 _0601_
*648 _0602_
*649 _0603_
*650 _0604_
*651 _0605_
*652 _0606_
*653 _0607_
*654 _0608_
*655 _0609_
*656 _0610_
*657 _0611_
*658 _0612_
*659 _0613_
*660 _0614_
*661 _0615_
*662 _0616_
*663 _0617_
*664 _0618_
*665 _0619_
*666 _0620_
*667 _0621_
*668 _0622_
*669 _0623_
*670 _0624_
*671 _0625_
*672 _0626_
*673 _0627_
*674 _0628_
*675 _0629_
*676 _0630_
*677 clknet_0_clk
*678 clknet_4_0_0_clk
*679 clknet_4_10_0_clk
*680 clknet_4_11_0_clk
*681 clknet_4_12_0_clk
*682 clknet_4_13_0_clk
*683 clknet_4_14_0_clk
*684 clknet_4_15_0_clk
*685 clknet_4_1_0_clk
*686 clknet_4_2_0_clk
*687 clknet_4_3_0_clk
*688 clknet_4_4_0_clk
*689 clknet_4_5_0_clk
*690 clknet_4_6_0_clk
*691 clknet_4_7_0_clk
*692 clknet_4_8_0_clk
*693 clknet_4_9_0_clk
*694 net1
*695 net100
*696 net101
*697 net102
*698 net103
*699 net2
*700 net24
*701 net25
*702 net26
*703 net27
*704 net28
*705 net29
*706 net3
*707 net30
*708 net31
*709 net32
*710 net33
*711 net34
*712 net35
*713 net36
*714 net37
*715 net38
*716 net39
*717 net4
*718 net40
*719 net41
*720 net42
*721 net43
*722 net44
*723 net45
*724 net46
*725 net47
*726 net48
*727 net49
*728 net5
*729 net50
*730 net51
*731 net52
*732 net53
*733 net54
*734 net55
*735 net56
*736 net57
*737 net58
*738 net59
*739 net6
*740 net60
*741 net61
*742 net62
*743 net63
*744 net64
*745 net65
*746 net66
*747 net67
*748 net68
*749 net69
*750 net7
*751 net70
*752 net71
*753 net72
*754 net73
*755 net74
*756 net75
*757 net76
*758 net77
*759 net78
*760 net79
*761 net80
*762 net81
*763 net82
*764 net83
*765 net84
*766 net85
*767 net86
*768 net87
*769 net88
*770 net89
*771 net90
*772 net91
*773 net92
*774 net93
*775 net94
*776 net95
*777 net96
*778 net97
*779 net98
*780 net99
*781 vga_clock\.col_index\[0\]
*782 vga_clock\.col_index\[1\]
*783 vga_clock\.col_index_q\[0\]
*784 vga_clock\.col_index_q\[1\]
*785 vga_clock\.color\[0\]
*786 vga_clock\.color\[1\]
*787 vga_clock\.color\[2\]
*788 vga_clock\.color\[3\]
*789 vga_clock\.color\[4\]
*790 vga_clock\.color\[5\]
*791 vga_clock\.color_offset\[0\]
*792 vga_clock\.color_offset\[1\]
*793 vga_clock\.color_offset\[2\]
*794 vga_clock\.digit_0\.char\[0\]
*795 vga_clock\.digit_0\.char\[1\]
*796 vga_clock\.digit_0\.char\[2\]
*797 vga_clock\.digit_0\.char\[3\]
*798 vga_clock\.digit_0\.digit_index\[0\]
*799 vga_clock\.digit_0\.digit_index\[1\]
*800 vga_clock\.digit_0\.digit_index\[2\]
*801 vga_clock\.digit_0\.digit_index\[3\]
*802 vga_clock\.digit_0\.digit_index\[4\]
*803 vga_clock\.digit_0\.digit_index\[5\]
*804 vga_clock\.digit_0\.number\[0\]
*805 vga_clock\.digit_0\.number\[1\]
*806 vga_clock\.digit_0\.x_block\[0\]
*807 vga_clock\.digit_0\.x_block\[1\]
*808 vga_clock\.draw
*809 vga_clock\.font_0\.dout\[1\]
*810 vga_clock\.font_0\.dout\[2\]
*811 vga_clock\.font_0\.dout\[3\]
*812 vga_clock\.hrs_d\[0\]
*813 vga_clock\.hrs_d\[1\]
*814 vga_clock\.hrs_u\[0\]
*815 vga_clock\.hrs_u\[1\]
*816 vga_clock\.hrs_u\[2\]
*817 vga_clock\.hrs_u\[3\]
*818 vga_clock\.min_d\[0\]
*819 vga_clock\.min_d\[1\]
*820 vga_clock\.min_d\[2\]
*821 vga_clock\.min_u\[0\]
*822 vga_clock\.min_u\[1\]
*823 vga_clock\.min_u\[2\]
*824 vga_clock\.min_u\[3\]
*825 vga_clock\.pulse_hrs\.comp\[0\]
*826 vga_clock\.pulse_hrs\.comp\[1\]
*827 vga_clock\.pulse_hrs\.comp\[2\]
*828 vga_clock\.pulse_hrs\.comp\[3\]
*829 vga_clock\.pulse_hrs\.comp\[4\]
*830 vga_clock\.pulse_hrs\.count\[0\]
*831 vga_clock\.pulse_hrs\.count\[1\]
*832 vga_clock\.pulse_hrs\.count\[2\]
*833 vga_clock\.pulse_hrs\.count\[3\]
*834 vga_clock\.pulse_hrs\.count\[4\]
*835 vga_clock\.pulse_min\.comp\[0\]
*836 vga_clock\.pulse_min\.comp\[1\]
*837 vga_clock\.pulse_min\.comp\[2\]
*838 vga_clock\.pulse_min\.comp\[3\]
*839 vga_clock\.pulse_min\.comp\[4\]
*840 vga_clock\.pulse_min\.count\[0\]
*841 vga_clock\.pulse_min\.count\[1\]
*842 vga_clock\.pulse_min\.count\[2\]
*843 vga_clock\.pulse_min\.count\[3\]
*844 vga_clock\.pulse_min\.count\[4\]
*845 vga_clock\.pulse_sec\.comp\[0\]
*846 vga_clock\.pulse_sec\.comp\[1\]
*847 vga_clock\.pulse_sec\.comp\[2\]
*848 vga_clock\.pulse_sec\.comp\[3\]
*849 vga_clock\.pulse_sec\.comp\[4\]
*850 vga_clock\.pulse_sec\.count\[0\]
*851 vga_clock\.pulse_sec\.count\[1\]
*852 vga_clock\.pulse_sec\.count\[2\]
*853 vga_clock\.pulse_sec\.count\[3\]
*854 vga_clock\.pulse_sec\.count\[4\]
*855 vga_clock\.sec_counter\[0\]
*856 vga_clock\.sec_counter\[10\]
*857 vga_clock\.sec_counter\[11\]
*858 vga_clock\.sec_counter\[12\]
*859 vga_clock\.sec_counter\[13\]
*860 vga_clock\.sec_counter\[14\]
*861 vga_clock\.sec_counter\[15\]
*862 vga_clock\.sec_counter\[16\]
*863 vga_clock\.sec_counter\[17\]
*864 vga_clock\.sec_counter\[18\]
*865 vga_clock\.sec_counter\[19\]
*866 vga_clock\.sec_counter\[1\]
*867 vga_clock\.sec_counter\[20\]
*868 vga_clock\.sec_counter\[21\]
*869 vga_clock\.sec_counter\[22\]
*870 vga_clock\.sec_counter\[23\]
*871 vga_clock\.sec_counter\[24\]
*872 vga_clock\.sec_counter\[25\]
*873 vga_clock\.sec_counter\[2\]
*874 vga_clock\.sec_counter\[3\]
*875 vga_clock\.sec_counter\[4\]
*876 vga_clock\.sec_counter\[5\]
*877 vga_clock\.sec_counter\[6\]
*878 vga_clock\.sec_counter\[7\]
*879 vga_clock\.sec_counter\[8\]
*880 vga_clock\.sec_counter\[9\]
*881 vga_clock\.sec_d\[0\]
*882 vga_clock\.sec_d\[1\]
*883 vga_clock\.sec_d\[2\]
*884 vga_clock\.sec_u\[0\]
*885 vga_clock\.sec_u\[1\]
*886 vga_clock\.sec_u\[2\]
*887 vga_clock\.sec_u\[3\]
*888 vga_clock\.vga_0\.hc\[0\]
*889 vga_clock\.vga_0\.hc\[1\]
*890 vga_clock\.vga_0\.hc\[2\]
*891 vga_clock\.vga_0\.hc\[3\]
*892 vga_clock\.vga_0\.hc\[4\]
*893 vga_clock\.vga_0\.hc\[5\]
*894 vga_clock\.vga_0\.hc\[6\]
*895 vga_clock\.vga_0\.hc\[7\]
*896 vga_clock\.vga_0\.hc\[8\]
*897 vga_clock\.vga_0\.hc\[9\]
*898 vga_clock\.vga_0\.vc\[0\]
*899 vga_clock\.vga_0\.vc\[1\]
*900 vga_clock\.vga_0\.vc\[2\]
*901 vga_clock\.vga_0\.vc\[3\]
*902 vga_clock\.vga_0\.vc\[4\]
*903 vga_clock\.vga_0\.vc\[5\]
*904 vga_clock\.vga_0\.vc\[6\]
*905 vga_clock\.vga_0\.vc\[7\]
*906 vga_clock\.vga_0\.vc\[8\]
*907 vga_clock\.vga_0\.vc\[9\]
*908 vga_clock\.vga_0\.x_px\[0\]
*909 vga_clock\.vga_0\.x_px\[1\]
*910 vga_clock\.vga_0\.x_px\[2\]
*911 vga_clock\.vga_0\.x_px\[3\]
*912 vga_clock\.vga_0\.x_px\[6\]
*913 vga_clock\.vga_0\.x_px\[7\]
*914 vga_clock\.vga_0\.x_px\[8\]
*915 vga_clock\.vga_0\.x_px\[9\]
*916 vga_clock\.vga_0\.y_px\[0\]
*917 vga_clock\.vga_0\.y_px\[1\]
*918 vga_clock\.vga_0\.y_px\[2\]
*919 vga_clock\.vga_0\.y_px\[3\]
*920 vga_clock\.vga_0\.y_px\[4\]
*921 vga_clock\.vga_0\.y_px\[5\]
*922 vga_clock\.vga_0\.y_px\[6\]
*923 vga_clock\.vga_0\.y_px\[7\]
*924 vga_clock\.vga_0\.y_px\[8\]
*925 vga_clock\.vga_0\.y_px\[9\]
*926 vga_clock\.x_block_q\[5\]
*927 vga_clock\.y_block\[0\]
*928 vga_clock\.y_block\[1\]
*929 vga_clock\.y_block\[2\]
*930 vga_clock\.y_block\[3\]
*931 vga_clock\.y_block\[4\]
*932 vga_clock\.y_block\[5\]
*933 vga_clock\.y_block_q\[0\]
*934 vga_clock\.y_block_q\[1\]
*935 vga_clock\.y_block_q\[2\]
*936 vga_clock\.y_block_q\[3\]
*937 vga_clock\.y_block_q\[4\]
*938 vga_clock\.y_block_q\[5\]
*939 FILLER_0_0_109
*940 FILLER_0_0_113
*941 FILLER_0_0_125
*942 FILLER_0_0_137
*943 FILLER_0_0_141
*944 FILLER_0_0_15
*945 FILLER_0_0_153
*946 FILLER_0_0_165
*947 FILLER_0_0_169
*948 FILLER_0_0_181
*949 FILLER_0_0_202
*950 FILLER_0_0_214
*951 FILLER_0_0_222
*952 FILLER_0_0_225
*953 FILLER_0_0_229
*954 FILLER_0_0_246
*955 FILLER_0_0_253
*956 FILLER_0_0_265
*957 FILLER_0_0_27
*958 FILLER_0_0_277
*959 FILLER_0_0_281
*960 FILLER_0_0_29
*961 FILLER_0_0_293
*962 FILLER_0_0_3
*963 FILLER_0_0_305
*964 FILLER_0_0_309
*965 FILLER_0_0_321
*966 FILLER_0_0_333
*967 FILLER_0_0_41
*968 FILLER_0_0_53
*969 FILLER_0_0_57
*970 FILLER_0_0_69
*971 FILLER_0_0_81
*972 FILLER_0_0_85
*973 FILLER_0_0_97
*974 FILLER_0_10_125
*975 FILLER_0_10_15
*976 FILLER_0_10_162
*977 FILLER_0_10_177
*978 FILLER_0_10_194
*979 FILLER_0_10_203
*980 FILLER_0_10_211
*981 FILLER_0_10_224
*982 FILLER_0_10_236
*983 FILLER_0_10_243
*984 FILLER_0_10_267
*985 FILLER_0_10_27
*986 FILLER_0_10_275
*987 FILLER_0_10_287
*988 FILLER_0_10_299
*989 FILLER_0_10_3
*990 FILLER_0_10_307
*991 FILLER_0_10_309
*992 FILLER_0_10_321
*993 FILLER_0_10_333
*994 FILLER_0_10_49
*995 FILLER_0_10_61
*996 FILLER_0_10_73
*997 FILLER_0_10_81
*998 FILLER_0_10_91
*999 FILLER_0_11_107
*1000 FILLER_0_11_111
*1001 FILLER_0_11_113
*1002 FILLER_0_11_125
*1003 FILLER_0_11_150
*1004 FILLER_0_11_166
*1005 FILLER_0_11_175
*1006 FILLER_0_11_185
*1007 FILLER_0_11_206
*1008 FILLER_0_11_218
*1009 FILLER_0_11_225
*1010 FILLER_0_11_237
*1011 FILLER_0_11_245
*1012 FILLER_0_11_251
*1013 FILLER_0_11_263
*1014 FILLER_0_11_292
*1015 FILLER_0_11_3
*1016 FILLER_0_11_304
*1017 FILLER_0_11_316
*1018 FILLER_0_11_328
*1019 FILLER_0_11_334
*1020 FILLER_0_11_43
*1021 FILLER_0_11_50
*1022 FILLER_0_11_57
*1023 FILLER_0_11_61
*1024 FILLER_0_11_84
*1025 FILLER_0_11_93
*1026 FILLER_0_12_109
*1027 FILLER_0_12_119
*1028 FILLER_0_12_131
*1029 FILLER_0_12_139
*1030 FILLER_0_12_141
*1031 FILLER_0_12_168
*1032 FILLER_0_12_177
*1033 FILLER_0_12_19
*1034 FILLER_0_12_194
*1035 FILLER_0_12_197
*1036 FILLER_0_12_234
*1037 FILLER_0_12_246
*1038 FILLER_0_12_26
*1039 FILLER_0_12_260
*1040 FILLER_0_12_272
*1041 FILLER_0_12_280
*1042 FILLER_0_12_285
*1043 FILLER_0_12_291
*1044 FILLER_0_12_3
*1045 FILLER_0_12_315
*1046 FILLER_0_12_327
*1047 FILLER_0_12_41
*1048 FILLER_0_12_53
*1049 FILLER_0_12_85
*1050 FILLER_0_12_93
*1051 FILLER_0_13_111
*1052 FILLER_0_13_125
*1053 FILLER_0_13_145
*1054 FILLER_0_13_15
*1055 FILLER_0_13_151
*1056 FILLER_0_13_160
*1057 FILLER_0_13_169
*1058 FILLER_0_13_194
*1059 FILLER_0_13_268
*1060 FILLER_0_13_278
*1061 FILLER_0_13_297
*1062 FILLER_0_13_3
*1063 FILLER_0_13_301
*1064 FILLER_0_13_313
*1065 FILLER_0_13_325
*1066 FILLER_0_13_333
*1067 FILLER_0_13_34
*1068 FILLER_0_13_57
*1069 FILLER_0_13_76
*1070 FILLER_0_13_88
*1071 FILLER_0_13_94
*1072 FILLER_0_14_116
*1073 FILLER_0_14_122
*1074 FILLER_0_14_134
*1075 FILLER_0_14_150
*1076 FILLER_0_14_162
*1077 FILLER_0_14_193
*1078 FILLER_0_14_197
*1079 FILLER_0_14_209
*1080 FILLER_0_14_253
*1081 FILLER_0_14_26
*1082 FILLER_0_14_266
*1083 FILLER_0_14_278
*1084 FILLER_0_14_3
*1085 FILLER_0_14_312
*1086 FILLER_0_14_32
*1087 FILLER_0_14_331
*1088 FILLER_0_14_78
*1089 FILLER_0_14_85
*1090 FILLER_0_14_89
*1091 FILLER_0_14_9
*1092 FILLER_0_15_107
*1093 FILLER_0_15_11
*1094 FILLER_0_15_111
*1095 FILLER_0_15_113
*1096 FILLER_0_15_132
*1097 FILLER_0_15_140
*1098 FILLER_0_15_147
*1099 FILLER_0_15_159
*1100 FILLER_0_15_167
*1101 FILLER_0_15_169
*1102 FILLER_0_15_183
*1103 FILLER_0_15_191
*1104 FILLER_0_15_203
*1105 FILLER_0_15_215
*1106 FILLER_0_15_222
*1107 FILLER_0_15_225
*1108 FILLER_0_15_247
*1109 FILLER_0_15_259
*1110 FILLER_0_15_267
*1111 FILLER_0_15_277
*1112 FILLER_0_15_281
*1113 FILLER_0_15_299
*1114 FILLER_0_15_3
*1115 FILLER_0_15_30
*1116 FILLER_0_15_325
*1117 FILLER_0_15_42
*1118 FILLER_0_15_80
*1119 FILLER_0_15_92
*1120 FILLER_0_16_108
*1121 FILLER_0_16_11
*1122 FILLER_0_16_120
*1123 FILLER_0_16_128
*1124 FILLER_0_16_135
*1125 FILLER_0_16_139
*1126 FILLER_0_16_148
*1127 FILLER_0_16_157
*1128 FILLER_0_16_174
*1129 FILLER_0_16_186
*1130 FILLER_0_16_194
*1131 FILLER_0_16_202
*1132 FILLER_0_16_210
*1133 FILLER_0_16_214
*1134 FILLER_0_16_222
*1135 FILLER_0_16_231
*1136 FILLER_0_16_243
*1137 FILLER_0_16_251
*1138 FILLER_0_16_253
*1139 FILLER_0_16_265
*1140 FILLER_0_16_288
*1141 FILLER_0_16_29
*1142 FILLER_0_16_296
*1143 FILLER_0_16_3
*1144 FILLER_0_16_301
*1145 FILLER_0_16_307
*1146 FILLER_0_16_316
*1147 FILLER_0_16_327
*1148 FILLER_0_16_41
*1149 FILLER_0_16_76
*1150 FILLER_0_16_85
*1151 FILLER_0_16_91
*1152 FILLER_0_17_113
*1153 FILLER_0_17_121
*1154 FILLER_0_17_146
*1155 FILLER_0_17_150
*1156 FILLER_0_17_166
*1157 FILLER_0_17_183
*1158 FILLER_0_17_214
*1159 FILLER_0_17_222
*1160 FILLER_0_17_225
*1161 FILLER_0_17_249
*1162 FILLER_0_17_261
*1163 FILLER_0_17_278
*1164 FILLER_0_17_292
*1165 FILLER_0_17_3
*1166 FILLER_0_17_328
*1167 FILLER_0_17_334
*1168 FILLER_0_17_40
*1169 FILLER_0_17_7
*1170 FILLER_0_17_73
*1171 FILLER_0_17_79
*1172 FILLER_0_18_113
*1173 FILLER_0_18_125
*1174 FILLER_0_18_139
*1175 FILLER_0_18_141
*1176 FILLER_0_18_15
*1177 FILLER_0_18_153
*1178 FILLER_0_18_159
*1179 FILLER_0_18_183
*1180 FILLER_0_18_192
*1181 FILLER_0_18_210
*1182 FILLER_0_18_216
*1183 FILLER_0_18_256
*1184 FILLER_0_18_268
*1185 FILLER_0_18_27
*1186 FILLER_0_18_297
*1187 FILLER_0_18_3
*1188 FILLER_0_18_305
*1189 FILLER_0_18_309
*1190 FILLER_0_18_32
*1191 FILLER_0_18_321
*1192 FILLER_0_18_333
*1193 FILLER_0_18_44
*1194 FILLER_0_18_48
*1195 FILLER_0_18_82
*1196 FILLER_0_18_85
*1197 FILLER_0_19_108
*1198 FILLER_0_19_11
*1199 FILLER_0_19_113
*1200 FILLER_0_19_125
*1201 FILLER_0_19_152
*1202 FILLER_0_19_158
*1203 FILLER_0_19_162
*1204 FILLER_0_19_169
*1205 FILLER_0_19_197
*1206 FILLER_0_19_202
*1207 FILLER_0_19_214
*1208 FILLER_0_19_222
*1209 FILLER_0_19_232
*1210 FILLER_0_19_261
*1211 FILLER_0_19_269
*1212 FILLER_0_19_276
*1213 FILLER_0_19_281
*1214 FILLER_0_19_293
*1215 FILLER_0_19_3
*1216 FILLER_0_19_303
*1217 FILLER_0_19_313
*1218 FILLER_0_19_331
*1219 FILLER_0_19_46
*1220 FILLER_0_19_70
*1221 FILLER_0_19_82
*1222 FILLER_0_19_94
*1223 FILLER_0_1_105
*1224 FILLER_0_1_111
*1225 FILLER_0_1_113
*1226 FILLER_0_1_125
*1227 FILLER_0_1_137
*1228 FILLER_0_1_149
*1229 FILLER_0_1_15
*1230 FILLER_0_1_161
*1231 FILLER_0_1_167
*1232 FILLER_0_1_169
*1233 FILLER_0_1_177
*1234 FILLER_0_1_213
*1235 FILLER_0_1_221
*1236 FILLER_0_1_258
*1237 FILLER_0_1_27
*1238 FILLER_0_1_290
*1239 FILLER_0_1_3
*1240 FILLER_0_1_302
*1241 FILLER_0_1_314
*1242 FILLER_0_1_326
*1243 FILLER_0_1_334
*1244 FILLER_0_1_39
*1245 FILLER_0_1_51
*1246 FILLER_0_1_55
*1247 FILLER_0_1_57
*1248 FILLER_0_1_69
*1249 FILLER_0_1_81
*1250 FILLER_0_1_93
*1251 FILLER_0_20_116
*1252 FILLER_0_20_128
*1253 FILLER_0_20_152
*1254 FILLER_0_20_164
*1255 FILLER_0_20_168
*1256 FILLER_0_20_194
*1257 FILLER_0_20_197
*1258 FILLER_0_20_209
*1259 FILLER_0_20_221
*1260 FILLER_0_20_229
*1261 FILLER_0_20_24
*1262 FILLER_0_20_253
*1263 FILLER_0_20_265
*1264 FILLER_0_20_284
*1265 FILLER_0_20_296
*1266 FILLER_0_20_3
*1267 FILLER_0_20_309
*1268 FILLER_0_20_329
*1269 FILLER_0_20_37
*1270 FILLER_0_20_49
*1271 FILLER_0_20_57
*1272 FILLER_0_20_7
*1273 FILLER_0_20_73
*1274 FILLER_0_20_82
*1275 FILLER_0_21_109
*1276 FILLER_0_21_129
*1277 FILLER_0_21_161
*1278 FILLER_0_21_167
*1279 FILLER_0_21_169
*1280 FILLER_0_21_177
*1281 FILLER_0_21_206
*1282 FILLER_0_21_210
*1283 FILLER_0_21_216
*1284 FILLER_0_21_220
*1285 FILLER_0_21_236
*1286 FILLER_0_21_248
*1287 FILLER_0_21_256
*1288 FILLER_0_21_26
*1289 FILLER_0_21_3
*1290 FILLER_0_21_30
*1291 FILLER_0_21_307
*1292 FILLER_0_21_313
*1293 FILLER_0_21_332
*1294 FILLER_0_21_55
*1295 FILLER_0_21_71
*1296 FILLER_0_21_91
*1297 FILLER_0_22_101
*1298 FILLER_0_22_11
*1299 FILLER_0_22_135
*1300 FILLER_0_22_139
*1301 FILLER_0_22_141
*1302 FILLER_0_22_147
*1303 FILLER_0_22_17
*1304 FILLER_0_22_194
*1305 FILLER_0_22_219
*1306 FILLER_0_22_243
*1307 FILLER_0_22_251
*1308 FILLER_0_22_253
*1309 FILLER_0_22_265
*1310 FILLER_0_22_269
*1311 FILLER_0_22_277
*1312 FILLER_0_22_29
*1313 FILLER_0_22_292
*1314 FILLER_0_22_296
*1315 FILLER_0_22_3
*1316 FILLER_0_22_325
*1317 FILLER_0_22_33
*1318 FILLER_0_22_333
*1319 FILLER_0_22_66
*1320 FILLER_0_23_105
*1321 FILLER_0_23_111
*1322 FILLER_0_23_113
*1323 FILLER_0_23_124
*1324 FILLER_0_23_143
*1325 FILLER_0_23_151
*1326 FILLER_0_23_159
*1327 FILLER_0_23_167
*1328 FILLER_0_23_193
*1329 FILLER_0_23_245
*1330 FILLER_0_23_253
*1331 FILLER_0_23_271
*1332 FILLER_0_23_279
*1333 FILLER_0_23_281
*1334 FILLER_0_23_289
*1335 FILLER_0_23_3
*1336 FILLER_0_23_326
*1337 FILLER_0_23_33
*1338 FILLER_0_23_334
*1339 FILLER_0_23_45
*1340 FILLER_0_23_52
*1341 FILLER_0_23_57
*1342 FILLER_0_23_69
*1343 FILLER_0_23_81
*1344 FILLER_0_23_87
*1345 FILLER_0_23_93
*1346 FILLER_0_23_99
*1347 FILLER_0_24_104
*1348 FILLER_0_24_11
*1349 FILLER_0_24_112
*1350 FILLER_0_24_119
*1351 FILLER_0_24_131
*1352 FILLER_0_24_139
*1353 FILLER_0_24_141
*1354 FILLER_0_24_153
*1355 FILLER_0_24_168
*1356 FILLER_0_24_176
*1357 FILLER_0_24_185
*1358 FILLER_0_24_197
*1359 FILLER_0_24_209
*1360 FILLER_0_24_221
*1361 FILLER_0_24_233
*1362 FILLER_0_24_245
*1363 FILLER_0_24_269
*1364 FILLER_0_24_281
*1365 FILLER_0_24_293
*1366 FILLER_0_24_3
*1367 FILLER_0_24_301
*1368 FILLER_0_24_307
*1369 FILLER_0_24_309
*1370 FILLER_0_24_334
*1371 FILLER_0_24_43
*1372 FILLER_0_24_63
*1373 FILLER_0_24_71
*1374 FILLER_0_24_75
*1375 FILLER_0_24_83
*1376 FILLER_0_25_109
*1377 FILLER_0_25_119
*1378 FILLER_0_25_131
*1379 FILLER_0_25_143
*1380 FILLER_0_25_155
*1381 FILLER_0_25_161
*1382 FILLER_0_25_167
*1383 FILLER_0_25_173
*1384 FILLER_0_25_181
*1385 FILLER_0_25_186
*1386 FILLER_0_25_198
*1387 FILLER_0_25_210
*1388 FILLER_0_25_222
*1389 FILLER_0_25_225
*1390 FILLER_0_25_237
*1391 FILLER_0_25_24
*1392 FILLER_0_25_243
*1393 FILLER_0_25_255
*1394 FILLER_0_25_275
*1395 FILLER_0_25_279
*1396 FILLER_0_25_293
*1397 FILLER_0_25_3
*1398 FILLER_0_25_305
*1399 FILLER_0_25_333
*1400 FILLER_0_25_36
*1401 FILLER_0_25_40
*1402 FILLER_0_25_52
*1403 FILLER_0_25_60
*1404 FILLER_0_25_7
*1405 FILLER_0_25_73
*1406 FILLER_0_25_81
*1407 FILLER_0_25_97
*1408 FILLER_0_26_104
*1409 FILLER_0_26_116
*1410 FILLER_0_26_120
*1411 FILLER_0_26_139
*1412 FILLER_0_26_144
*1413 FILLER_0_26_148
*1414 FILLER_0_26_166
*1415 FILLER_0_26_187
*1416 FILLER_0_26_194
*1417 FILLER_0_26_197
*1418 FILLER_0_26_207
*1419 FILLER_0_26_215
*1420 FILLER_0_26_221
*1421 FILLER_0_26_229
*1422 FILLER_0_26_251
*1423 FILLER_0_26_263
*1424 FILLER_0_26_267
*1425 FILLER_0_26_27
*1426 FILLER_0_26_278
*1427 FILLER_0_26_3
*1428 FILLER_0_26_306
*1429 FILLER_0_26_309
*1430 FILLER_0_26_32
*1431 FILLER_0_26_331
*1432 FILLER_0_26_36
*1433 FILLER_0_26_56
*1434 FILLER_0_26_69
*1435 FILLER_0_26_7
*1436 FILLER_0_26_77
*1437 FILLER_0_26_85
*1438 FILLER_0_26_96
*1439 FILLER_0_27_101
*1440 FILLER_0_27_105
*1441 FILLER_0_27_111
*1442 FILLER_0_27_118
*1443 FILLER_0_27_148
*1444 FILLER_0_27_160
*1445 FILLER_0_27_169
*1446 FILLER_0_27_221
*1447 FILLER_0_27_23
*1448 FILLER_0_27_256
*1449 FILLER_0_27_262
*1450 FILLER_0_27_279
*1451 FILLER_0_27_3
*1452 FILLER_0_27_301
*1453 FILLER_0_27_322
*1454 FILLER_0_27_331
*1455 FILLER_0_27_45
*1456 FILLER_0_27_55
*1457 FILLER_0_27_71
*1458 FILLER_0_27_9
*1459 FILLER_0_28_107
*1460 FILLER_0_28_115
*1461 FILLER_0_28_157
*1462 FILLER_0_28_172
*1463 FILLER_0_28_184
*1464 FILLER_0_28_195
*1465 FILLER_0_28_201
*1466 FILLER_0_28_214
*1467 FILLER_0_28_227
*1468 FILLER_0_28_24
*1469 FILLER_0_28_241
*1470 FILLER_0_28_267
*1471 FILLER_0_28_271
*1472 FILLER_0_28_279
*1473 FILLER_0_28_289
*1474 FILLER_0_28_29
*1475 FILLER_0_28_3
*1476 FILLER_0_28_303
*1477 FILLER_0_28_314
*1478 FILLER_0_28_331
*1479 FILLER_0_28_80
*1480 FILLER_0_28_96
*1481 FILLER_0_29_104
*1482 FILLER_0_29_113
*1483 FILLER_0_29_126
*1484 FILLER_0_29_148
*1485 FILLER_0_29_160
*1486 FILLER_0_29_169
*1487 FILLER_0_29_189
*1488 FILLER_0_29_201
*1489 FILLER_0_29_212
*1490 FILLER_0_29_236
*1491 FILLER_0_29_26
*1492 FILLER_0_29_275
*1493 FILLER_0_29_279
*1494 FILLER_0_29_286
*1495 FILLER_0_29_3
*1496 FILLER_0_29_323
*1497 FILLER_0_29_333
*1498 FILLER_0_29_50
*1499 FILLER_0_29_62
*1500 FILLER_0_29_68
*1501 FILLER_0_29_76
*1502 FILLER_0_29_84
*1503 FILLER_0_29_9
*1504 FILLER_0_29_92
*1505 FILLER_0_2_109
*1506 FILLER_0_2_121
*1507 FILLER_0_2_133
*1508 FILLER_0_2_139
*1509 FILLER_0_2_141
*1510 FILLER_0_2_15
*1511 FILLER_0_2_153
*1512 FILLER_0_2_159
*1513 FILLER_0_2_163
*1514 FILLER_0_2_175
*1515 FILLER_0_2_179
*1516 FILLER_0_2_205
*1517 FILLER_0_2_219
*1518 FILLER_0_2_227
*1519 FILLER_0_2_240
*1520 FILLER_0_2_250
*1521 FILLER_0_2_261
*1522 FILLER_0_2_27
*1523 FILLER_0_2_29
*1524 FILLER_0_2_3
*1525 FILLER_0_2_306
*1526 FILLER_0_2_309
*1527 FILLER_0_2_321
*1528 FILLER_0_2_333
*1529 FILLER_0_2_41
*1530 FILLER_0_2_53
*1531 FILLER_0_2_65
*1532 FILLER_0_2_77
*1533 FILLER_0_2_83
*1534 FILLER_0_2_85
*1535 FILLER_0_2_97
*1536 FILLER_0_30_102
*1537 FILLER_0_30_133
*1538 FILLER_0_30_139
*1539 FILLER_0_30_141
*1540 FILLER_0_30_158
*1541 FILLER_0_30_194
*1542 FILLER_0_30_197
*1543 FILLER_0_30_209
*1544 FILLER_0_30_239
*1545 FILLER_0_30_247
*1546 FILLER_0_30_25
*1547 FILLER_0_30_269
*1548 FILLER_0_30_281
*1549 FILLER_0_30_289
*1550 FILLER_0_30_3
*1551 FILLER_0_30_330
*1552 FILLER_0_30_334
*1553 FILLER_0_30_41
*1554 FILLER_0_30_68
*1555 FILLER_0_30_82
*1556 FILLER_0_30_93
*1557 FILLER_0_31_110
*1558 FILLER_0_31_129
*1559 FILLER_0_31_138
*1560 FILLER_0_31_142
*1561 FILLER_0_31_160
*1562 FILLER_0_31_169
*1563 FILLER_0_31_177
*1564 FILLER_0_31_189
*1565 FILLER_0_31_201
*1566 FILLER_0_31_223
*1567 FILLER_0_31_244
*1568 FILLER_0_31_248
*1569 FILLER_0_31_255
*1570 FILLER_0_31_267
*1571 FILLER_0_31_279
*1572 FILLER_0_31_281
*1573 FILLER_0_31_293
*1574 FILLER_0_31_3
*1575 FILLER_0_31_305
*1576 FILLER_0_31_317
*1577 FILLER_0_31_32
*1578 FILLER_0_31_321
*1579 FILLER_0_31_333
*1580 FILLER_0_31_44
*1581 FILLER_0_32_105
*1582 FILLER_0_32_117
*1583 FILLER_0_32_124
*1584 FILLER_0_32_157
*1585 FILLER_0_32_169
*1586 FILLER_0_32_177
*1587 FILLER_0_32_189
*1588 FILLER_0_32_195
*1589 FILLER_0_32_197
*1590 FILLER_0_32_209
*1591 FILLER_0_32_217
*1592 FILLER_0_32_241
*1593 FILLER_0_32_249
*1594 FILLER_0_32_25
*1595 FILLER_0_32_253
*1596 FILLER_0_32_265
*1597 FILLER_0_32_277
*1598 FILLER_0_32_285
*1599 FILLER_0_32_3
*1600 FILLER_0_32_303
*1601 FILLER_0_32_307
*1602 FILLER_0_32_309
*1603 FILLER_0_32_321
*1604 FILLER_0_32_333
*1605 FILLER_0_32_34
*1606 FILLER_0_32_42
*1607 FILLER_0_32_83
*1608 FILLER_0_32_85
*1609 FILLER_0_33_104
*1610 FILLER_0_33_113
*1611 FILLER_0_33_123
*1612 FILLER_0_33_131
*1613 FILLER_0_33_139
*1614 FILLER_0_33_15
*1615 FILLER_0_33_158
*1616 FILLER_0_33_166
*1617 FILLER_0_33_169
*1618 FILLER_0_33_194
*1619 FILLER_0_33_206
*1620 FILLER_0_33_218
*1621 FILLER_0_33_225
*1622 FILLER_0_33_24
*1623 FILLER_0_33_243
*1624 FILLER_0_33_251
*1625 FILLER_0_33_259
*1626 FILLER_0_33_268
*1627 FILLER_0_33_281
*1628 FILLER_0_33_289
*1629 FILLER_0_33_3
*1630 FILLER_0_33_31
*1631 FILLER_0_33_312
*1632 FILLER_0_33_331
*1633 FILLER_0_33_43
*1634 FILLER_0_33_55
*1635 FILLER_0_33_65
*1636 FILLER_0_33_80
*1637 FILLER_0_33_92
*1638 FILLER_0_34_107
*1639 FILLER_0_34_127
*1640 FILLER_0_34_139
*1641 FILLER_0_34_141
*1642 FILLER_0_34_149