*SPEF "ieee 1481-1999"
*DESIGN "tt_um_ejfogleman_smsdac8"
*DATE "02:24:00 Thursday May 23, 2024"
*VENDOR "The OpenROAD Project"
*PROGRAM "OpenROAD"
*VERSION "da0053d7b0014ab9c87ea148875ff6c2a0f9b658"
*DESIGN_FLOW "NAME_SCOPE LOCAL" "PIN_CAP NONE"
*DIVIDER /
*DELIMITER :
*BUS_DELIMITER []
*T_UNIT 1 NS
*C_UNIT 1 PF
*R_UNIT 1 OHM
*L_UNIT 1 HENRY

*NAME_MAP
*3 clk
*4 ena
*5 rst_n
*6 ui_in[0]
*7 ui_in[1]
*8 ui_in[2]
*9 ui_in[3]
*10 ui_in[4]
*11 ui_in[5]
*12 ui_in[6]
*13 ui_in[7]
*14 uio_in[0]
*15 uio_in[1]
*16 uio_in[2]
*17 uio_in[3]
*18 uio_in[4]
*19 uio_in[5]
*20 uio_in[6]
*21 uio_in[7]
*22 net21
*23 net22
*24 net25
*25 net26
*26 net27
*27 net28
*28 net29
*29 net30
*30 net23
*31 net24
*32 uio_out[2]
*33 uio_out[3]
*34 uio_out[4]
*35 uio_out[5]
*36 uio_out[6]
*37 uio_out[7]
*38 uo_out[0]
*39 uo_out[1]
*40 uo_out[2]
*41 uo_out[3]
*42 uo_out[4]
*43 uo_out[5]
*44 uo_out[6]
*45 uo_out[7]
*46 _000_
*47 _001_
*48 _002_
*49 _003_
*50 _004_
*51 _005_
*52 _006_
*53 _007_
*54 _008_
*55 _009_
*56 _010_
*57 _011_
*58 _012_
*59 _013_
*60 _014_
*61 _015_
*62 _016_
*63 _017_
*64 _018_
*65 _019_
*66 _020_
*67 _021_
*68 _022_
*69 _023_
*70 _024_
*71 _025_
*72 _026_
*73 _027_
*74 _028_
*75 _029_
*76 _030_
*77 _031_
*78 _032_
*79 _033_
*80 _034_
*81 _035_
*82 _036_
*83 _037_
*84 _038_
*85 _039_
*86 _040_
*87 _041_
*88 _042_
*89 _043_
*90 _044_
*91 _045_
*92 _046_
*93 _047_
*94 _048_
*95 _049_
*96 _050_
*97 _051_
*98 _052_
*99 _053_
*100 _054_
*101 _055_
*102 _056_
*103 _057_
*104 _058_
*105 _059_
*106 _060_
*107 _061_
*108 _062_
*109 _063_
*110 _064_
*111 _065_
*112 _066_
*113 _067_
*114 _068_
*115 _069_
*116 _070_
*117 _071_
*118 _072_
*119 _073_
*120 _074_
*121 _075_
*122 _076_
*123 _077_
*124 _078_
*125 _079_
*126 _080_
*127 _081_
*128 _082_
*129 _083_
*130 _084_
*131 _085_
*132 _086_
*133 _087_
*134 _088_
*135 _089_
*136 _090_
*137 _091_
*138 _092_
*139 _093_
*140 _094_
*141 _095_
*142 _096_
*143 _097_
*144 _098_
*145 _099_
*146 _100_
*147 _101_
*148 _102_
*149 _103_
*150 _104_
*151 _105_
*152 _106_
*153 _107_
*154 _108_
*155 _109_
*156 _110_
*157 _111_
*158 _112_
*159 _113_
*160 _114_
*161 _115_
*162 _116_
*163 _117_
*164 _118_
*165 _119_
*166 _120_
*167 _121_
*168 _122_
*169 _123_
*170 _124_
*171 _125_
*172 _126_
*173 _127_
*174 _128_
*175 _129_
*176 _130_
*177 _131_
*178 _132_
*179 _133_
*180 _134_
*181 _135_
*182 _136_
*183 _137_
*184 _138_
*185 _139_
*186 _140_
*187 _141_
*188 _142_
*189 _143_
*190 _144_
*191 _145_
*192 _146_
*193 _147_
*194 _148_
*195 _149_
*196 _150_
*197 _151_
*198 _152_
*199 _153_
*200 _154_
*201 _155_
*202 _156_
*203 _157_
*204 _158_
*205 _159_
*206 _160_
*207 _161_
*208 _162_
*209 _163_
*210 _164_
*211 _165_
*212 _166_
*213 _167_
*214 _168_
*215 _169_
*216 _170_
*217 _171_
*218 _172_
*219 _173_
*220 _174_
*221 _175_
*222 _176_
*223 _177_
*224 _178_
*225 _179_
*226 _180_
*227 _181_
*228 _182_
*229 _183_
*230 _184_
*231 _185_
*232 _186_
*233 _187_
*234 _188_
*235 _189_
*236 _190_
*237 _191_
*238 _192_
*239 _193_
*240 _194_
*241 _195_
*242 _196_
*243 clknet_0_clk
*244 clknet_3_0__leaf_clk
*245 clknet_3_1__leaf_clk
*246 clknet_3_2__leaf_clk
*247 clknet_3_3__leaf_clk
*248 clknet_3_4__leaf_clk
*249 clknet_3_5__leaf_clk
*250 clknet_3_6__leaf_clk
*251 clknet_3_7__leaf_clk
*252 net1
*253 net10
*254 net11
*255 net12
*256 net13
*257 net14
*258 net15
*259 net16
*260 net17
*261 net18
*262 net19
*263 net2
*264 net20
*265 net3
*266 net31
*267 net32
*268 net33
*269 net34
*270 net35
*271 net36
*272 net37
*273 net38
*274 net39
*275 net4
*276 net40
*277 net41
*278 net42
*279 net43
*280 net44
*281 net45
*282 net46
*283 net47
*284 net48
*285 net49
*286 net5
*287 net50
*288 net51
*289 net52
*290 net53
*291 net54
*292 net55
*293 net56
*294 net57
*295 net58
*296 net59
*297 net6
*298 net60
*299 net61
*300 net62
*301 net7
*302 net8
*303 net9
*304 u_top\.i_rst_b
*305 u_top\.u_dac\.o_y\[0\]
*306 u_top\.u_dac\.o_y\[10\]
*307 u_top\.u_dac\.o_y\[11\]
*308 u_top\.u_dac\.o_y\[12\]
*309 u_top\.u_dac\.o_y\[13\]
*310 u_top\.u_dac\.o_y\[1\]
*311 u_top\.u_dac\.o_y\[2\]
*312 u_top\.u_dac\.o_y\[3\]
*313 u_top\.u_dac\.o_y\[4\]
*314 u_top\.u_dac\.o_y\[5\]
*315 u_top\.u_dac\.o_y\[6\]
*316 u_top\.u_dac\.o_y\[7\]
*317 u_top\.u_dac\.o_y\[8\]
*318 u_top\.u_dac\.o_y\[9\]
*319 u_top\.u_dac\.u_s00\.i_r
*320 u_top\.u_dac\.u_s00\.i_x
*321 u_top\.u_dac\.u_s00\.sb_sm\.q\[0\]
*322 u_top\.u_dac\.u_s00\.sb_sm\.q\[1\]
*323 u_top\.u_dac\.u_s01\.i_r
*324 u_top\.u_dac\.u_s01\.sb_sm\.q\[0\]
*325 u_top\.u_dac\.u_s01\.sb_sm\.q\[1\]
*326 u_top\.u_dac\.u_s02\.i_r
*327 u_top\.u_dac\.u_s02\.sb_sm\.q\[0\]
*328 u_top\.u_dac\.u_s02\.sb_sm\.q\[1\]
*329 u_top\.u_dac\.u_s03\.i_r
*330 u_top\.u_dac\.u_s03\.sb_sm\.q\[0\]
*331 u_top\.u_dac\.u_s03\.sb_sm\.q\[1\]
*332 u_top\.u_dac\.u_s04\.i_r
*333 u_top\.u_dac\.u_s04\.sb_sm\.q\[0\]
*334 u_top\.u_dac\.u_s04\.sb_sm\.q\[1\]
*335 u_top\.u_dac\.u_s05\.i_r
*336 u_top\.u_dac\.u_s05\.sb_sm\.q\[0\]
*337 u_top\.u_dac\.u_s05\.sb_sm\.q\[1\]
*338 u_top\.u_dac\.u_s06\.i_r
*339 u_top\.u_dac\.u_s06\.sb_sm\.q\[0\]
*340 u_top\.u_dac\.u_s06\.sb_sm\.q\[1\]
*341 u_top\.u_dac\.u_s10\.i_x
*342 u_top\.u_dac\.u_s10\.sb_sm\.q\[0\]
*343 u_top\.u_dac\.u_s10\.sb_sm\.q\[1\]
*344 u_top\.u_dac\.u_s20\.i_x
*345 u_top\.u_dac\.u_s20\.sb_sm\.q\[0\]
*346 u_top\.u_dac\.u_s20\.sb_sm\.q\[1\]
*347 u_top\.u_dac\.u_s30\.i_x
*348 u_top\.u_dac\.u_s30\.sb_sm\.q\[0\]
*349 u_top\.u_dac\.u_s30\.sb_sm\.q\[1\]
*350 u_top\.u_dac\.u_s40\.i_x
*351 u_top\.u_dac\.u_s40\.sb_sm\.q\[0\]
*352 u_top\.u_dac\.u_s40\.sb_sm\.q\[1\]
*353 u_top\.u_dac\.u_s50\.i_x
*354 u_top\.u_dac\.u_s50\.sb_sm\.q\[0\]
*355 u_top\.u_dac\.u_s50\.sb_sm\.q\[1\]
*356 u_top\.u_dac\.u_s60\.i_x
*357 u_top\.u_dac\.u_s60\.sb_sm\.q\[0\]
*358 u_top\.u_dac\.u_s60\.sb_sm\.q\[1\]
*359 u_top\.u_dac\.u_s70\.i_r
*360 u_top\.u_dac\.u_s70\.i_x
*361 u_top\.u_dac\.u_s70\.sb_sm\.q\[0\]
*362 u_top\.u_dac\.u_s70\.sb_sm\.q\[1\]
*363 u_top\.u_lfsr\.q\[0\]
*364 u_top\.u_lfsr\.q\[10\]
*365 u_top\.u_lfsr\.q\[11\]
*366 u_top\.u_lfsr\.q\[12\]
*367 u_top\.u_lfsr\.q\[13\]
*368 u_top\.u_lfsr\.q\[14\]
*369 u_top\.u_lfsr\.q\[15\]
*370 u_top\.u_lfsr\.q\[16\]
*371 u_top\.u_lfsr\.q\[17\]
*372 u_top\.u_lfsr\.q\[18\]
*373 u_top\.u_lfsr\.q\[19\]
*374 u_top\.u_lfsr\.q\[9\]
*375 u_top\.u_sync1\.o_q\[0\]
*376 u_top\.u_sync1\.o_q\[1\]
*377 u_top\.u_sync1\.o_q\[2\]
*378 u_top\.u_sync1\.o_q\[3\]
*379 u_top\.u_sync1\.o_q\[4\]
*380 u_top\.u_sync1\.o_q\[5\]
*381 u_top\.u_sync1\.o_q\[6\]
*382 u_top\.u_sync1\.o_q\[7\]
*383 FILLER_0_0_109
*384 FILLER_0_0_113
*385 FILLER_0_0_125
*386 FILLER_0_0_137
*387 FILLER_0_0_141
*388 FILLER_0_0_15
*389 FILLER_0_0_153
*390 FILLER_0_0_165
*391 FILLER_0_0_169
*392 FILLER_0_0_181
*393 FILLER_0_0_193
*394 FILLER_0_0_197
*395 FILLER_0_0_209
*396 FILLER_0_0_221
*397 FILLER_0_0_225
*398 FILLER_0_0_237
*399 FILLER_0_0_249
*400 FILLER_0_0_253
*401 FILLER_0_0_265
*402 FILLER_0_0_27
*403 FILLER_0_0_277
*404 FILLER_0_0_281
*405 FILLER_0_0_29
*406 FILLER_0_0_293
*407 FILLER_0_0_3
*408 FILLER_0_0_305
*409 FILLER_0_0_309
*410 FILLER_0_0_321
*411 FILLER_0_0_333
*412 FILLER_0_0_41
*413 FILLER_0_0_53
*414 FILLER_0_0_57
*415 FILLER_0_0_69
*416 FILLER_0_0_81
*417 FILLER_0_0_85
*418 FILLER_0_0_97
*419 FILLER_0_10_109
*420 FILLER_0_10_121
*421 FILLER_0_10_133
*422 FILLER_0_10_139
*423 FILLER_0_10_141
*424 FILLER_0_10_15
*425 FILLER_0_10_153
*426 FILLER_0_10_165
*427 FILLER_0_10_177
*428 FILLER_0_10_189
*429 FILLER_0_10_195
*430 FILLER_0_10_197
*431 FILLER_0_10_209
*432 FILLER_0_10_221
*433 FILLER_0_10_233
*434 FILLER_0_10_245
*435 FILLER_0_10_251
*436 FILLER_0_10_253
*437 FILLER_0_10_265
*438 FILLER_0_10_27
*439 FILLER_0_10_277
*440 FILLER_0_10_289
*441 FILLER_0_10_29
*442 FILLER_0_10_3
*443 FILLER_0_10_301
*444 FILLER_0_10_307
*445 FILLER_0_10_309
*446 FILLER_0_10_321
*447 FILLER_0_10_333
*448 FILLER_0_10_41
*449 FILLER_0_10_53
*450 FILLER_0_10_65
*451 FILLER_0_10_77
*452 FILLER_0_10_83
*453 FILLER_0_10_85
*454 FILLER_0_10_97
*455 FILLER_0_11_105
*456 FILLER_0_11_111
*457 FILLER_0_11_113
*458 FILLER_0_11_125
*459 FILLER_0_11_137
*460 FILLER_0_11_149
*461 FILLER_0_11_15
*462 FILLER_0_11_161
*463 FILLER_0_11_167
*464 FILLER_0_11_169
*465 FILLER_0_11_181
*466 FILLER_0_11_193
*467 FILLER_0_11_205
*468 FILLER_0_11_217
*469 FILLER_0_11_223
*470 FILLER_0_11_225
*471 FILLER_0_11_237
*472 FILLER_0_11_249
*473 FILLER_0_11_261
*474 FILLER_0_11_27
*475 FILLER_0_11_273
*476 FILLER_0_11_279
*477 FILLER_0_11_281
*478 FILLER_0_11_293
*479 FILLER_0_11_3
*480 FILLER_0_11_305
*481 FILLER_0_11_317
*482 FILLER_0_11_329
*483 FILLER_0_11_39
*484 FILLER_0_11_51
*485 FILLER_0_11_55
*486 FILLER_0_11_57
*487 FILLER_0_11_69
*488 FILLER_0_11_81
*489 FILLER_0_11_93
*490 FILLER_0_12_109
*491 FILLER_0_12_121
*492 FILLER_0_12_133
*493 FILLER_0_12_139
*494 FILLER_0_12_141
*495 FILLER_0_12_15
*496 FILLER_0_12_153
*497 FILLER_0_12_165
*498 FILLER_0_12_177
*499 FILLER_0_12_189
*500 FILLER_0_12_195
*501 FILLER_0_12_197
*502 FILLER_0_12_209
*503 FILLER_0_12_221
*504 FILLER_0_12_233
*505 FILLER_0_12_245
*506 FILLER_0_12_251
*507 FILLER_0_12_253
*508 FILLER_0_12_265
*509 FILLER_0_12_27
*510 FILLER_0_12_277
*511 FILLER_0_12_289
*512 FILLER_0_12_29
*513 FILLER_0_12_3
*514 FILLER_0_12_301
*515 FILLER_0_12_307
*516 FILLER_0_12_309
*517 FILLER_0_12_321
*518 FILLER_0_12_333
*519 FILLER_0_12_41
*520 FILLER_0_12_53
*521 FILLER_0_12_65
*522 FILLER_0_12_77
*523 FILLER_0_12_83
*524 FILLER_0_12_85
*525 FILLER_0_12_97
*526 FILLER_0_13_105
*527 FILLER_0_13_111
*528 FILLER_0_13_113
*529 FILLER_0_13_125
*530 FILLER_0_13_137
*531 FILLER_0_13_149
*532 FILLER_0_13_15
*533 FILLER_0_13_161
*534 FILLER_0_13_167
*535 FILLER_0_13_169
*536 FILLER_0_13_181
*537 FILLER_0_13_193
*538 FILLER_0_13_205
*539 FILLER_0_13_217
*540 FILLER_0_13_223
*541 FILLER_0_13_225
*542 FILLER_0_13_237
*543 FILLER_0_13_249
*544 FILLER_0_13_261
*545 FILLER_0_13_27
*546 FILLER_0_13_273
*547 FILLER_0_13_279
*548 FILLER_0_13_281
*549 FILLER_0_13_293
*550 FILLER_0_13_3
*551 FILLER_0_13_305
*552 FILLER_0_13_317
*553 FILLER_0_13_329
*554 FILLER_0_13_39
*555 FILLER_0_13_51
*556 FILLER_0_13_55
*557 FILLER_0_13_57
*558 FILLER_0_13_69
*559 FILLER_0_13_81
*560 FILLER_0_13_93
*561 FILLER_0_14_109
*562 FILLER_0_14_121
*563 FILLER_0_14_133
*564 FILLER_0_14_139
*565 FILLER_0_14_141
*566 FILLER_0_14_15
*567 FILLER_0_14_153
*568 FILLER_0_14_165
*569 FILLER_0_14_177
*570 FILLER_0_14_189
*571 FILLER_0_14_195
*572 FILLER_0_14_197
*573 FILLER_0_14_209
*574 FILLER_0_14_221
*575 FILLER_0_14_233
*576 FILLER_0_14_245
*577 FILLER_0_14_251
*578 FILLER_0_14_253
*579 FILLER_0_14_265
*580 FILLER_0_14_27
*581 FILLER_0_14_277
*582 FILLER_0_14_289
*583 FILLER_0_14_29
*584 FILLER_0_14_3
*585 FILLER_0_14_301
*586 FILLER_0_14_307
*587 FILLER_0_14_309
*588 FILLER_0_14_321
*589 FILLER_0_14_333
*590 FILLER_0_14_41
*591 FILLER_0_14_53
*592 FILLER_0_14_65
*593 FILLER_0_14_77
*594 FILLER_0_14_83
*595 FILLER_0_14_85
*596 FILLER_0_14_97
*597 FILLER_0_15_105
*598 FILLER_0_15_111
*599 FILLER_0_15_113
*600 FILLER_0_15_125
*601 FILLER_0_15_137
*602 FILLER_0_15_149
*603 FILLER_0_15_15
*604 FILLER_0_15_161
*605 FILLER_0_15_167
*606 FILLER_0_15_169
*607 FILLER_0_15_181
*608 FILLER_0_15_193
*609 FILLER_0_15_205
*610 FILLER_0_15_217
*611 FILLER_0_15_223
*612 FILLER_0_15_225
*613 FILLER_0_15_237
*614 FILLER_0_15_249
*615 FILLER_0_15_261
*616 FILLER_0_15_27
*617 FILLER_0_15_273
*618 FILLER_0_15_279
*619 FILLER_0_15_281
*620 FILLER_0_15_293
*621 FILLER_0_15_3
*622 FILLER_0_15_305
*623 FILLER_0_15_317
*624 FILLER_0_15_329
*625 FILLER_0_15_39
*626 FILLER_0_15_51
*627 FILLER_0_15_55
*628 FILLER_0_15_57
*629 FILLER_0_15_69
*630 FILLER_0_15_81
*631 FILLER_0_15_93
*632 FILLER_0_16_109
*633 FILLER_0_16_121
*634 FILLER_0_16_133
*635 FILLER_0_16_139
*636 FILLER_0_16_141
*637 FILLER_0_16_15
*638 FILLER_0_16_153
*639 FILLER_0_16_165
*640 FILLER_0_16_177
*641 FILLER_0_16_189
*642 FILLER_0_16_195
*643 FILLER_0_16_197
*644 FILLER_0_16_209
*645 FILLER_0_16_221
*646 FILLER_0_16_233
*647 FILLER_0_16_245
*648 FILLER_0_16_251
*649 FILLER_0_16_253
*650 FILLER_0_16_265
*651 FILLER_0_16_27
*652 FILLER_0_16_277
*653 FILLER_0_16_289
*654 FILLER_0_16_29
*655 FILLER_0_16_3
*656 FILLER_0_16_301
*657 FILLER_0_16_307
*658 FILLER_0_16_309
*659 FILLER_0_16_321
*660 FILLER_0_16_333
*661 FILLER_0_16_41
*662 FILLER_0_16_53
*663 FILLER_0_16_65
*664 FILLER_0_16_77
*665 FILLER_0_16_83
*666 FILLER_0_16_85
*667 FILLER_0_16_97
*668 FILLER_0_17_105
*669 FILLER_0_17_111
*670 FILLER_0_17_113
*671 FILLER_0_17_125
*672 FILLER_0_17_137
*673 FILLER_0_17_149
*674 FILLER_0_17_15
*675 FILLER_0_17_161
*676 FILLER_0_17_167
*677 FILLER_0_17_169
*678 FILLER_0_17_181
*679 FILLER_0_17_193
*680 FILLER_0_17_205
*681 FILLER_0_17_217
*682 FILLER_0_17_223
*683 FILLER_0_17_225
*684 FILLER_0_17_237
*685 FILLER_0_17_249
*686 FILLER_0_17_261
*687 FILLER_0_17_27
*688 FILLER_0_17_273
*689 FILLER_0_17_279
*690 FILLER_0_17_281
*691 FILLER_0_17_293
*692 FILLER_0_17_3
*693 FILLER_0_17_305
*694 FILLER_0_17_317
*695 FILLER_0_17_329
*696 FILLER_0_17_39
*697 FILLER_0_17_51
*698 FILLER_0_17_55
*699 FILLER_0_17_57
*700 FILLER_0_17_69
*701 FILLER_0_17_81
*702 FILLER_0_17_93
*703 FILLER_0_18_109
*704 FILLER_0_18_130
*705 FILLER_0_18_138
*706 FILLER_0_18_141
*707 FILLER_0_18_15
*708 FILLER_0_18_153
*709 FILLER_0_18_165
*710 FILLER_0_18_177
*711 FILLER_0_18_189
*712 FILLER_0_18_195
*713 FILLER_0_18_197
*714 FILLER_0_18_209
*715 FILLER_0_18_221
*716 FILLER_0_18_233
*717 FILLER_0_18_245
*718 FILLER_0_18_251
*719 FILLER_0_18_253
*720 FILLER_0_18_265
*721 FILLER_0_18_27
*722 FILLER_0_18_277
*723 FILLER_0_18_289
*724 FILLER_0_18_29
*725 FILLER_0_18_3
*726 FILLER_0_18_301
*727 FILLER_0_18_307
*728 FILLER_0_18_309
*729 FILLER_0_18_321
*730 FILLER_0_18_333
*731 FILLER_0_18_41
*732 FILLER_0_18_53
*733 FILLER_0_18_65
*734 FILLER_0_18_77
*735 FILLER_0_18_83
*736 FILLER_0_18_85
*737 FILLER_0_18_97
*738 FILLER_0_19_102
*739 FILLER_0_19_110
*740 FILLER_0_19_133
*741 FILLER_0_19_145
*742 FILLER_0_19_15
*743 FILLER_0_19_157
*744 FILLER_0_19_163
*745 FILLER_0_19_167
*746 FILLER_0_19_178
*747 FILLER_0_19_190
*748 FILLER_0_19_196
*749 FILLER_0_19_200
*750 FILLER_0_19_212
*751 FILLER_0_19_225
*752 FILLER_0_19_237
*753 FILLER_0_19_249
*754 FILLER_0_19_261
*755 FILLER_0_19_27
*756 FILLER_0_19_273
*757 FILLER_0_19_279
*758 FILLER_0_19_281
*759 FILLER_0_19_293
*760 FILLER_0_19_3
*761 FILLER_0_19_305
*762 FILLER_0_19_317
*763 FILLER_0_19_329
*764 FILLER_0_19_39
*765 FILLER_0_19_51
*766 FILLER_0_19_55
*767 FILLER_0_19_57
*768 FILLER_0_19_69
*769 FILLER_0_19_73
*770 FILLER_0_1_105
*771 FILLER_0_1_111
*772 FILLER_0_1_113
*773 FILLER_0_1_125
*774 FILLER_0_1_137
*775 FILLER_0_1_149
*776 FILLER_0_1_15
*777 FILLER_0_1_161
*778 FILLER_0_1_167
*779 FILLER_0_1_169
*780 FILLER_0_1_181
*781 FILLER_0_1_193
*782 FILLER_0_1_205
*783 FILLER_0_1_217
*784 FILLER_0_1_223
*785 FILLER_0_1_225
*786 FILLER_0_1_237
*787 FILLER_0_1_249
*788 FILLER_0_1_261
*789 FILLER_0_1_27
*790 FILLER_0_1_273
*791 FILLER_0_1_279
*792 FILLER_0_1_281
*793 FILLER_0_1_293
*794 FILLER_0_1_3
*795 FILLER_0_1_305
*796 FILLER_0_1_317
*797 FILLER_0_1_329
*798 FILLER_0_1_39
*799 FILLER_0_1_51
*800 FILLER_0_1_55
*801 FILLER_0_1_57
*802 FILLER_0_1_69
*803 FILLER_0_1_81
*804 FILLER_0_1_93
*805 FILLER_0_20_105
*806 FILLER_0_20_135
*807 FILLER_0_20_139
*808 FILLER_0_20_141
*809 FILLER_0_20_15
*810 FILLER_0_20_153
*811 FILLER_0_20_197
*812 FILLER_0_20_221
*813 FILLER_0_20_229
*814 FILLER_0_20_233
*815 FILLER_0_20_242
*816 FILLER_0_20_250
*817 FILLER_0_20_253
*818 FILLER_0_20_265
*819 FILLER_0_20_27
*820 FILLER_0_20_277
*821 FILLER_0_20_289
*822 FILLER_0_20_29
*823 FILLER_0_20_3
*824 FILLER_0_20_301
*825 FILLER_0_20_307
*826 FILLER_0_20_309
*827 FILLER_0_20_321
*828 FILLER_0_20_333
*829 FILLER_0_20_41
*830 FILLER_0_20_53
*831 FILLER_0_20_65
*832 FILLER_0_20_71
*833 FILLER_0_21_103
*834 FILLER_0_21_111
*835 FILLER_0_21_113
*836 FILLER_0_21_15
*837 FILLER_0_21_150
*838 FILLER_0_21_158
*839 FILLER_0_21_166
*840 FILLER_0_21_189
*841 FILLER_0_21_210
*842 FILLER_0_21_222
*843 FILLER_0_21_246
*844 FILLER_0_21_258
*845 FILLER_0_21_27
*846 FILLER_0_21_270
*847 FILLER_0_21_278
*848 FILLER_0_21_281
*849 FILLER_0_21_293
*850 FILLER_0_21_3
*851 FILLER_0_21_305
*852 FILLER_0_21_317
*853 FILLER_0_21_329
*854 FILLER_0_21_39
*855 FILLER_0_21_51
*856 FILLER_0_21_55
*857 FILLER_0_21_57
*858 FILLER_0_21_61
*859 FILLER_0_21_65
*860 FILLER_0_21_77
*861 FILLER_0_21_81
*862 FILLER_0_21_85
*863 FILLER_0_22_109
*864 FILLER_0_22_117
*865 FILLER_0_22_15
*866 FILLER_0_22_150
*867 FILLER_0_22_187
*868 FILLER_0_22_195
*869 FILLER_0_22_197
*870 FILLER_0_22_210
*871 FILLER_0_22_222
*872 FILLER_0_22_251
*873 FILLER_0_22_262
*874 FILLER_0_22_27
*875 FILLER_0_22_274
*876 FILLER_0_22_286
*877 FILLER_0_22_29
*878 FILLER_0_22_298
*879 FILLER_0_22_3
*880 FILLER_0_22_306
*881 FILLER_0_22_309
*882 FILLER_0_22_321
*883 FILLER_0_22_333
*884 FILLER_0_22_41
*885 FILLER_0_22_49
*886 FILLER_0_22_83
*887 FILLER_0_22_97
*888 FILLER_0_23_15
*889 FILLER_0_23_156
*890 FILLER_0_23_167
*891 FILLER_0_23_183
*892 FILLER_0_23_189
*893 FILLER_0_23_217
*894 FILLER_0_23_225
*895 FILLER_0_23_261
*896 FILLER_0_23_27
*897 FILLER_0_23_273
*898 FILLER_0_23_279
*899 FILLER_0_23_281
*900 FILLER_0_23_293
*901 FILLER_0_23_3
*902 FILLER_0_23_305
*903 FILLER_0_23_317
*904 FILLER_0_23_329
*905 FILLER_0_23_39
*906 FILLER_0_23_51
*907 FILLER_0_23_55
*908 FILLER_0_23_57
*909 FILLER_0_24_108
*910 FILLER_0_24_112
*911 FILLER_0_24_116
*912 FILLER_0_24_139
*913 FILLER_0_24_148
*914 FILLER_0_24_15
*915 FILLER_0_24_179
*916 FILLER_0_24_191
*917 FILLER_0_24_195
*918 FILLER_0_24_197
*919 FILLER_0_24_203
*920 FILLER_0_24_219
*921 FILLER_0_24_251
*922 FILLER_0_24_267
*923 FILLER_0_24_27
*924 FILLER_0_24_279
*925 FILLER_0_24_29
*926 FILLER_0_24_291
*927 FILLER_0_24_3
*928 FILLER_0_24_303
*929 FILLER_0_24_307
*930 FILLER_0_24_309
*931 FILLER_0_24_321
*932 FILLER_0_24_333
*933 FILLER_0_24_41
*934 FILLER_0_24_65
*935 FILLER_0_24_73
*936 FILLER_0_25_106
*937 FILLER_0_25_113
*938 FILLER_0_25_125
*939 FILLER_0_25_131
*940 FILLER_0_25_139
*941 FILLER_0_25_15
*942 FILLER_0_25_162
*943 FILLER_0_25_169
*944 FILLER_0_25_173
*945 FILLER_0_25_177
*946 FILLER_0_25_190
*947 FILLER_0_25_202
*948 FILLER_0_25_214
*949 FILLER_0_25_222
*950 FILLER_0_25_225
*951 FILLER_0_25_237
*952 FILLER_0_25_253
*953 FILLER_0_25_265
*954 FILLER_0_25_27
*955 FILLER_0_25_277
*956 FILLER_0_25_281
*957 FILLER_0_25_293
*958 FILLER_0_25_3
*959 FILLER_0_25_305
*960 FILLER_0_25_317
*961 FILLER_0_25_329
*962 FILLER_0_25_39
*963 FILLER_0_25_48
*964 FILLER_0_25_66
*965 FILLER_0_25_94
*966 FILLER_0_26_103
*967 FILLER_0_26_126
*968 FILLER_0_26_138
*969 FILLER_0_26_141
*970 FILLER_0_26_15
*971 FILLER_0_26_153
*972 FILLER_0_26_197
*973 FILLER_0_26_239
*974 FILLER_0_26_253
*975 FILLER_0_26_27
*976 FILLER_0_26_274
*977 FILLER_0_26_286
*978 FILLER_0_26_29
*979 FILLER_0_26_298
*980 FILLER_0_26_3
*981 FILLER_0_26_306
*982 FILLER_0_26_309
*983 FILLER_0_26_321
*984 FILLER_0_26_333
*985 FILLER_0_26_37
*986 FILLER_0_26_80
*987 FILLER_0_26_85
*988 FILLER_0_26_95
*989 FILLER_0_27_108
*990 FILLER_0_27_113
*991 FILLER_0_27_136
*992 FILLER_0_27_15
*993 FILLER_0_27_169
*994 FILLER_0_27_197
*995 FILLER_0_27_221
*996 FILLER_0_27_27
*997 FILLER_0_27_273
*998 FILLER_0_27_279
*999 FILLER_0_27_281
*1000 FILLER_0_27_293
*1001 FILLER_0_27_3
*1002 FILLER_0_27_305
*1003 FILLER_0_27_317
*1004 FILLER_0_27_329
*1005 FILLER_0_27_39
*1006 FILLER_0_27_51
*1007 FILLER_0_27_55
*1008 FILLER_0_27_64
*1009 FILLER_0_27_72
*1010 FILLER_0_28_134
*1011 FILLER_0_28_141
*1012 FILLER_0_28_15
*1013 FILLER_0_28_189
*1014 FILLER_0_28_195
*1015 FILLER_0_28_197
*1016 FILLER_0_28_234
*1017 FILLER_0_28_251
*1018 FILLER_0_28_259
*1019 FILLER_0_28_268
*1020 FILLER_0_28_27
*1021 FILLER_0_28_280
*1022 FILLER_0_28_292
*1023 FILLER_0_28_3
*1024 FILLER_0_28_304
*1025 FILLER_0_28_309
*1026 FILLER_0_28_321
*1027 FILLER_0_28_333
*1028 FILLER_0_28_49
*1029 FILLER_0_28_61
*1030 FILLER_0_28_73
*1031 FILLER_0_28_81
*1032 FILLER_0_28_97
*1033 FILLER_0_29_109
*1034 FILLER_0_29_113
*1035 FILLER_0_29_136
*1036 FILLER_0_29_148
*1037 FILLER_0_29_15
*1038 FILLER_0_29_152
*1039 FILLER_0_29_163
*1040 FILLER_0_29_198
*1041 FILLER_0_29_215
*1042 FILLER_0_29_223
*1043 FILLER_0_29_243
*1044 FILLER_0_29_255
*1045 FILLER_0_29_269
*1046 FILLER_0_29_27
*1047 FILLER_0_29_277
*1048 FILLER_0_29_281
*1049 FILLER_0_29_293
*1050 FILLER_0_29_3
*1051 FILLER_0_29_305
*1052 FILLER_0_29_317
*1053 FILLER_0_29_329
*1054 FILLER_0_29_53
*1055 FILLER_0_29_73
*1056 FILLER_0_29_77
*1057 FILLER_0_29_85
*1058 FILLER_0_29_97
*1059 FILLER_0_2_109
*1060 FILLER_0_2_121
*1061 FILLER_0_2_133
*1062 FILLER_0_2_139
*1063 FILLER_0_2_141
*1064 FILLER_0_2_15
*1065 FILLER_0_2_153
*1066 FILLER_0_2_165
*1067 FILLER_0_2_177
*1068 FILLER_0_2_189
*1069 FILLER_0_2_195
*1070 FILLER_0_2_197
*1071 FILLER_0_2_209
*1072 FILLER_0_2_221
*1073 FILLER_0_2_233
*1074 FILLER_0_2_245
*1075 FILLER_0_2_251
*1076 FILLER_0_2_253
*1077 FILLER_0_2_265
*1078 FILLER_0_2_27
*1079 FILLER_0_2_277
*1080 FILLER_0_2_289
*1081 FILLER_0_2_29
*1082 FILLER_0_2_3
*1083 FILLER_0_2_301
*1084 FILLER_0_2_307
*1085 FILLER_0_2_309
*1086 FILLER_0_2_321
*1087 FILLER_0_2_333
*1088 FILLER_0_2_41
*1089 FILLER_0_2_53
*1090 FILLER_0_2_65
*1091 FILLER_0_2_77
*1092 FILLER_0_2_83
*1093 FILLER_0_2_85
*1094 FILLER_0_2_97
*1095 FILLER_0_30_101
*1096 FILLER_0_30_109
*1097 FILLER_0_30_121
*1098 FILLER_0_30_133
*1099 FILLER_0_30_139
*1100 FILLER_0_30_141
*1101 FILLER_0_30_15
*1102 FILLER_0_30_177
*1103 FILLER_0_30_189
*1104 FILLER_0_30_195
*1105 FILLER_0_30_197
*1106 FILLER_0_30_205
*1107 FILLER_0_30_212
*1108 FILLER_0_30_216
*1109 FILLER_0_30_228
*1110 FILLER_0_30_240
*1111 FILLER_0_30_27
*1112 FILLER_0_30_29
*1113 FILLER_0_30_293
*1114 FILLER_0_30_3
*1115 FILLER_0_30_305
*1116 FILLER_0_30_309
*1117 FILLER_0_30_321
*1118 FILLER_0_30_333
*1119 FILLER_0_30_36
*1120 FILLER_0_30_63
*1121 FILLER_0_30_69
*1122 FILLER_0_30_85
*1123 FILLER_0_31_100
*1124 FILLER_0_31_106
*1125 FILLER_0_31_110
*1126 FILLER_0_31_126
*1127 FILLER_0_31_134
*1128 FILLER_0_31_149
*1129 FILLER_0_31_15
*1130 FILLER_0_31_157
*1131 FILLER_0_31_184
*1132 FILLER_0_31_196
*1133 FILLER_0_31_218
*1134 FILLER_0_31_229
*1135 FILLER_0_31_278
*1136 FILLER_0_31_284
*1137 FILLER_0_31_296
*1138 FILLER_0_31_3
*1139 FILLER_0_31_326
*1140 FILLER_0_31_334
*1141 FILLER_0_31_43
*1142 FILLER_0_31_47
*1143 FILLER_0_31_79
*1144 FILLER_0_31_86
*1145 FILLER_0_32_118
*1146 FILLER_0_32_15
*1147 FILLER_0_32_161
*1148 FILLER_0_32_173
*1149 FILLER_0_32_181
*1150 FILLER_0_32_191
*1151 FILLER_0_32_216
*1152 FILLER_0_32_228
*1153 FILLER_0_32_23
*1154 FILLER_0_32_250
*1155 FILLER_0_32_276
*1156 FILLER_0_32_3
*1157 FILLER_0_32_309
*1158 FILLER_0_32_333
*1159 FILLER_0_32_58
*1160 FILLER_0_32_64
*1161 FILLER_0_32_74
*1162 FILLER_0_32_82
*1163 FILLER_0_33_103
*1164 FILLER_0_33_141
*1165 FILLER_0_33_15
*1166 FILLER_0_33_169
*1167 FILLER_0_33_181
*1168 FILLER_0_33_212
*1169 FILLER_0_33_237
*1170 FILLER_0_33_260
*1171 FILLER_0_33_27
*1172 FILLER_0_33_272
*1173 FILLER_0_33_3
*1174 FILLER_0_33_321
*1175 FILLER_0_33_325
*1176 FILLER_0_33_334
*1177 FILLER_0_33_35
*1178 FILLER_0_33_51
*1179 FILLER_0_33_55
*1180 FILLER_0_33_57
*1181 FILLER_0_33_69
*1182 FILLER_0_33_76
*1183 FILLER_0_33_94
*1184 FILLER_0_34_136
*1185 FILLER_0_34_15
*1186 FILLER_0_34_169
*1187 FILLER_0_34_181
*1188 FILLER_0_34_193
*1189 FILLER_0_34_197
*1190 FILLER_0_34_207
*1191 FILLER_0_34_216
*1192 FILLER_0_34_229
*1193 FILLER_0_34_243
*1194 FILLER_0_34_251
*1195 FILLER_0_34_253
*1196 FILLER_0_34_265
*1197 FILLER_0_34_269
*1198 FILLER_0_34_27
*1199 FILLER_0_34_290
*1200 FILLER_0_34_3
*1201 FILLER_0_34_304
*1202 FILLER_0_34_309
*1203 FILLER_0_34_333
*1204 FILLER_0_34_57
*1205 FILLER_0_34_64
*1206 FILLER_0_34_70
*1207 FILLER_0_34_85
*1208 FILLER_0_34_95
*1209 FILLER_0_35_106
*1210 FILLER_0_35_110
*1211 FILLER_0_35_113
*1212 FILLER_0_35_125
*1213 FILLER_0_35_129
*1214 FILLER_0_35_15
*1215 FILLER_0_35_164
*1216 FILLER_0_35_169
*1217 FILLER_0_35_181
*1218 FILLER_0_35_187
*1219 FILLER_0_35_19
*1220 FILLER_0_35_199
*1221 FILLER_0_35_213
*1222 FILLER_0_35_223
*1223 FILLER_0_35_245
*1224 FILLER_0_35_257
*1225 FILLER_0_35_279
*1226 FILLER_0_35_297
*1227 FILLER_0_35_3
*1228 FILLER_0_35_52
*1229 FILLER_0_35_57
*1230 FILLER_0_35_69
*1231 FILLER_0_35_81
*1232 FILLER_0_35_98
*1233 FILLER_0_36_127
*1234 FILLER_0_36_131
*1235 FILLER_0_36_15
*1236 FILLER_0_36_164
*1237 FILLER_0_36_168
*1238 FILLER_0_36_195
*1239 FILLER_0_36_197
*1240 FILLER_0_36_209
*1241 FILLER_0_36_248
*1242 FILLER_0_36_253
*1243 FILLER_0_36_27
*1244 FILLER_0_36_29
*1245 FILLER_0_36_295
*1246 FILLER_0_36_3
*1247 FILLER_0_36_304
*1248 FILLER_0_36_42
*1249 FILLER_0_36_54
*1250 FILLER_0_36_60
*1251 FILLER_0_36_85
*1252 FILLER_0_36_93
*1253 FILLER_0_36_99
*1254 FILLER_0_37_119
*1255 FILLER_0_37_131
*1256 FILLER_0_37_15
*1257 FILLER_0_37_158
*1258 FILLER_0_37_166
*1259 FILLER_0_37_169
*1260 FILLER_0_37_175
*1261 FILLER_0_37_222
*1262 FILLER_0_37_27
*1263 FILLER_0_37_3
*1264 FILLER_0_37_301
*1265 FILLER_0_37_323
*1266 FILLER_0_37_57
*1267 FILLER_0_37_62
*1268 FILLER_0_38_10
*1269 FILLER_0_38_111
*1270 FILLER_0_38_113
*1271 FILLER_0_38_118
*1272 FILLER_0_38_122
*1273 FILLER_0_38_126
*1274 FILLER_0_38_138
*1275 FILLER_0_38_14
*1276 FILLER_0_38_141
*1277 FILLER_0_38_147
*1278 FILLER_0_38_154
*1279 FILLER_0_38_166
*1280 FILLER_0_38_18
*1281 FILLER_0_38_192
*1282 FILLER_0_38_197
*1283 FILLER_0_38_209
*1284 FILLER_0_38_22
*1285 FILLER_0_38_221
*1286 FILLER_0_38_225
*1287 FILLER_0_38_237
*1288 FILLER_0_38_241
*1289 FILLER_0_38_279
*1290 FILLER_0_38_281
*1291 FILLER_0_38_286
*1292 FILLER_0_38_318
*1293 FILLER_0_38_32
*1294 FILLER_0_38_334
*1295 FILLER_0_38_38
*1296 FILLER_0_38_42
*1297 FILLER_0_38_46
*1298 FILLER_0_38_50
*1299 FILLER_0_38_54
*1300 FILLER_0_38_6
*1301 FILLER_0_38_80
*1302 FILLER_0_38_85
*1303 FILLER_0_38_97
*1304 FILLER_0_3_105
*1305 FILLER_0_3_111
*1306 FILLER_0_3_113
*1307 FILLER_0_3_125
*1308 FILLER_0_3_137
*1309 FILLER_0_3_149
*1310 FILLER_0_3_15
*1311 FILLER_0_3_161
*1312 FILLER_0_3_167
*1313 FILLER_0_3_169
*1314 FILLER_0_3_181
*1315 FILLER_0_3_193
*1316 FILLER_0_3_205
*1317 FILLER_0_3_217
*1318 FILLER_0_3_223
*1319 FILLER_0_3_225
*1320 FILLER_0_3_237
*1321 FILLER_0_3_249
*1322 FILLER_0_3_261
*1323 FILLER_0_3_27
*1324 FILLER_0_3_273
*1325 FILLER_0_3_279
*1326 FILLER_0_3_281
*1327 FILLER_0_3_293
*1328 FILLER_0_3_3
*1329 FILLER_0_3_305
*1330 FILLER_0_3_317
*1331 FILLER_0_3_329
*1332 FILLER_0_3_39
*1333 FILLER_0_3_51
*1334 FILLER_0_3_55
*1335 FILLER_0_3_57
*1336 FILLER_0_3_69
*1337 FILLER_0_3_81
*1338 FILLER_0_3_93
*1339 FILLER_0_4_109
*1340 FILLER_0_4_121
*1341 FILLER_0_4_133
*1342 FILLER_0_4_139
*1343 FILLER_0_4_141
*1344 FILLER_0_4_15
*1345 FILLER_0_4_153
*1346 FILLER_0_4_165
*1347 FILLER_0_4_177
*1348 FILLER_0_4_189
*1349 FILLER_0_4_195
*1350 FILLER_0_4_197
*1351 FILLER_0_4_209
*1352 FILLER_0_4_221
*1353 FILLER_0_4_233
*1354 FILLER_0_4_245
*1355 FILLER_0_4_251
*1356 FILLER_0_4_253
*1357 FILLER_0_4_265
*1358 FILLER_0_4_27
*1359 FILLER_0_4_277
*1360 FILLER_0_4_289
*1361 FILLER_0_4_29
*1362 FILLER_0_4_3
*1363 FILLER_0_4_301
*1364 FILLER_0_4_307
*1365 FILLER_0_4_309
*1366 FILLER_0_4_321
*1367 FILLER_0_4_333
*1368 FILLER_0_4_41
*1369 FILLER_0_4_53
*1370 FILLER_0_4_65
*1371 FILLER_0_4_77
*1372 FILLER_0_4_83
*1373 FILLER_0_4_85
*1374 FILLER_0_4_97
*1375 FILLER_0_5_105
*1376 FILLER_0_5_111
*1377 FILLER_0_5_113
*1378 FILLER_0_5_125
*1379 FILLER_0_5_137
*1380 FILLER_0_5_149
*1381 FILLER_0_5_15
*1382 FILLER_0_5_161
*1383 FILLER_0_5_167
*1384 FILLER_0_5_169
*1385 FILLER_0_5_181
*1386 FILLER_0_5_193
*1387 FILLER_0_5_205
*1388 FILLER_0_5_217
*1389 FILLER_0_5_223
*1390 FILLER_0_5_225
*1391 FILLER_0_5_237
*1392 FILLER_0_5_249
*1393 FILLER_0_5_261
*1394 FILLER_0_5_27
*1395 FILLER_0_5_273
*1396 FILLER_0_5_279
*1397 FILLER_0_5_281
*1398 FILLER_0_5_293
*1399 FILLER_0_5_3
*1400 FILLER_0_5_305
*1401 FILLER_0_5_317
*1402 FILLER_0_5_329
*1403 FILLER_0_5_39
*1404 FILLER_0_5_51
*1405 FILLER_0_5_55
*1406 FILLER_0_5_57
*1407 FILLER_0_5_69
*1408 FILLER_0_5_81
*1409 FILLER_0_5_93
*1410 FILLER_0_6_109
*1411 FILLER_0_6_121
*1412 FILLER_0_6_133
*1413 FILLER_0_6_139
*1414 FILLER_0_6_141
*1415 FILLER_0_6_15
*1416 FILLER_0_6_153
*1417 FILLER_0_6_165
*1418 FILLER_0_6_177
*1419 FILLER_0_6_189
*1420 FILLER_0_6_195
*1421 FILLER_0_6_197
*1422 FILLER_0_6_209
*1423 FILLER_0_6_221
*1424 FILLER_0_6_233
*1425 FILLER_0_6_245
*1426 FILLER_0_6_251
*1427 FILLER_0_6_253
*1428 FILLER_0_6_265
*1429 FILLER_0_6_27
*1430 FILLER_0_6_277
*1431 FILLER_0_6_289
*1432 FILLER_0_6_29
*1433 FILLER_0_6_3
*1434 FILLER_0_6_301
*1435 FILLER_0_6_307
*1436 FILLER_0_6_309
*1437 FILLER_0_6_321
*1438 FILLER_0_6_333
*1439 FILLER_0_6_41
*1440 FILLER_0_6_53
*1441 FILLER_0_6_65
*1442 FILLER_0_6_77
*1443 FILLER_0_6_83
*1444 FILLER_0_6_85
*1445 FILLER_0_6_97
*1446 FILLER_0_7_105
*1447 FILLER_0_7_111
*1448 FILLER_0_7_113
*1449 FILLER_0_7_125
*1450 FILLER_0_7_137
*1451 FILLER_0_7_149
*1452 FILLER_0_7_15
*1453 FILLER_0_7_161
*1454 FILLER_0_7_167
*1455 FILLER_0_7_169
*1456 FILLER_0_7_181
*1457 FILLER_0_7_193
*1458 FILLER_0_7_205
*1459 FILLER_0_7_217
*1460 FILLER_0_7_223
*1461 FILLER_0_7_225
*1462 FILLER_0_7_237
*1463 FILLER_0_7_249
*1464 FILLER_0_7_261
*1465 FILLER_0_7_27
*1466 FILLER_0_7_273
*1467 FILLER_0_7_279
*1468 FILLER_0_7_281
*1469 FILLER_0_7_293
*1470 FILLER_0_7_3
*1471 FILLER_0_7_305
*1472 FILLER_0_7_317
*1473 FILLER_0_7_329
*1474 FILLER_0_7_39
*1475 FILLER_0_7_51
*1476 FILLER_0_7_55
*1477 FILLER_0_7_57
*1478 FILLER_0_7_69
*1479 FILLER_0_7_81
*1480 FILLER_0_7_93
*1481 FILLER_0_8_109
*1482 FILLER_0_8_121
*1483 FILLER_0_8_133
*1484 FILLER_0_8_139
*1485 FILLER_0_8_141
*1486 FILLER_0_8_15
*1487 FILLER_0_8_153
*1488 FILLER_0_8_165
*1489 FILLER_0_8_177
*1490 FILLER_0_8_189
*1491 FILLER_0_8_195
*1492 FILLER_0_8_197
*1493 FILLER_0_8_209
*1494 FILLER_0_8_221
*1495 FILLER_0_8_233
*1496 FILLER_0_8_245
*1497 FILLER_0_8_251
*1498 FILLER_0_8_253
*1499 FILLER_0_8_265
*1500 FILLER_0_8_27
*1501 FILLER_0_8_277
*1502 FILLER_0_8_289
*1503 FILLER_0_8_29
*1504 FILLER_0_8_3
*1505 FILLER_0_8_301
*1506 FILLER_0_8_307
*1507 FILLER_0_8_309
*1508 FILLER_0_8_321
*1509 FILLER_0_8_333
*1510 FILLER_0_8_41
*1511 FILLER_0_8_53
*1512 FILLER_0_8_65
*1513 FILLER_0_8_77
*1514 FILLER_0_8_83
*1515 FILLER_0_8_85