*SPEF "ieee 1481-1999"
*DESIGN "tt_um_delay_line_tmng"
*DATE "18:56:20 Wednesday May 29, 2024"
*VENDOR "The OpenROAD Project"
*PROGRAM "OpenROAD"
*VERSION "da0053d7b0014ab9c87ea148875ff6c2a0f9b658"
*DESIGN_FLOW "NAME_SCOPE LOCAL" "PIN_CAP NONE"
*DIVIDER /
*DELIMITER :
*BUS_DELIMITER []
*T_UNIT 1 NS
*C_UNIT 1 PF
*R_UNIT 1 OHM
*L_UNIT 1 HENRY

*NAME_MAP
*3 clk
*4 ena
*5 rst_n
*6 ui_in[0]
*7 ui_in[1]
*8 ui_in[2]
*9 ui_in[3]
*10 ui_in[4]
*11 ui_in[5]
*12 ui_in[6]
*13 ui_in[7]
*14 uio_in[0]
*15 uio_in[1]
*16 uio_in[2]
*17 uio_in[3]
*18 uio_in[4]
*19 uio_in[5]
*20 uio_in[6]
*21 uio_in[7]
*22 net7
*23 net8
*24 net9
*25 net10
*26 net11
*27 net12
*28 net13
*29 net14
*30 net15
*31 net16
*32 net17
*33 net18
*34 net19
*35 net20
*36 net21
*37 net22
*38 uo_out[0]
*39 uo_out[1]
*40 uo_out[2]
*41 uo_out[3]
*42 uo_out[4]
*43 uo_out[5]
*44 uo_out[6]
*45 uo_out[7]
*46 _000_
*47 _001_
*48 _002_
*49 _003_
*50 _004_
*51 _005_
*52 _006_
*53 _007_
*54 _008_
*55 _009_
*56 _010_
*57 _011_
*58 _012_
*59 _013_
*60 _014_
*61 _015_
*62 _016_
*63 _017_
*64 _018_
*65 _019_
*66 _020_
*67 _021_
*68 clknet_0_clk
*69 clknet_2_0__leaf_clk
*70 clknet_2_1__leaf_clk
*71 clknet_2_2__leaf_clk
*72 clknet_2_3__leaf_clk
*73 clknet_leaf_0_clk
*74 clknet_leaf_10_clk
*75 clknet_leaf_11_clk
*76 clknet_leaf_12_clk
*77 clknet_leaf_13_clk
*78 clknet_leaf_14_clk
*79 clknet_leaf_15_clk
*80 clknet_leaf_16_clk
*81 clknet_leaf_17_clk
*82 clknet_leaf_18_clk
*83 clknet_leaf_19_clk
*84 clknet_leaf_1_clk
*85 clknet_leaf_20_clk
*86 clknet_leaf_21_clk
*87 clknet_leaf_22_clk
*88 clknet_leaf_23_clk
*89 clknet_leaf_24_clk
*90 clknet_leaf_25_clk
*91 clknet_leaf_26_clk
*92 clknet_leaf_27_clk
*93 clknet_leaf_28_clk
*94 clknet_leaf_29_clk
*95 clknet_leaf_2_clk
*96 clknet_leaf_30_clk
*97 clknet_leaf_31_clk
*98 clknet_leaf_32_clk
*99 clknet_leaf_33_clk
*100 clknet_leaf_34_clk
*101 clknet_leaf_35_clk
*102 clknet_leaf_36_clk
*103 clknet_leaf_37_clk
*104 clknet_leaf_3_clk
*105 clknet_leaf_4_clk
*106 clknet_leaf_5_clk
*107 clknet_leaf_6_clk
*108 clknet_leaf_7_clk
*109 clknet_leaf_8_clk
*110 clknet_leaf_9_clk
*111 net1
*112 net2
*113 net23
*114 net24
*115 net25
*116 net26
*117 net27
*118 net28
*119 net29
*120 net3
*121 net30
*122 net31
*123 net32
*124 net33
*125 net34
*126 net35
*127 net36
*128 net37
*129 net38
*130 net39
*131 net4
*132 net40
*133 net41
*134 net42
*135 net5
*136 net6
*137 tmng_0\._e_621
*138 tmng_0\._e_630
*139 tmng_0\._e_642
*140 tmng_0\._e_647
*141 tmng_0\._e_650
*142 tmng_0\._e_662
*143 tmng_0\.opa
*144 tmng_0\.opb
*145 tmng_0\.shift_reg_0\.output__
*146 tmng_0\.shift_reg_0\.shift_reg100_0\.inv_reg_0\.dlygate_0\.A
*147 tmng_0\.shift_reg_0\.shift_reg100_0\.inv_reg_0\.dlygate_0\.X_mut
*148 tmng_0\.shift_reg_0\.shift_reg100_0\.inv_reg_0\.dlygate_1\.A
*149 tmng_0\.shift_reg_0\.shift_reg100_0\.inv_reg_0\.dlygate_1\.X_mut
*150 tmng_0\.shift_reg_0\.shift_reg100_0\.inv_reg_0\.output__
*151 tmng_0\.shift_reg_0\.shift_reg100_0\.inv_reg_1\.dlygate_0\.X_mut
*152 tmng_0\.shift_reg_0\.shift_reg100_0\.inv_reg_1\.dlygate_1\.A
*153 tmng_0\.shift_reg_0\.shift_reg100_0\.inv_reg_1\.dlygate_1\.X_mut
*154 tmng_0\.shift_reg_0\.shift_reg100_0\.inv_reg_1\.output__
*155 tmng_0\.shift_reg_0\.shift_reg100_0\.inv_reg_10\.dlygate_0\.A
*156 tmng_0\.shift_reg_0\.shift_reg100_0\.inv_reg_10\.dlygate_0\.X_mut
*157 tmng_0\.shift_reg_0\.shift_reg100_0\.inv_reg_10\.dlygate_1\.A
*158 tmng_0\.shift_reg_0\.shift_reg100_0\.inv_reg_10\.dlygate_1\.X_mut
*159 tmng_0\.shift_reg_0\.shift_reg100_0\.inv_reg_10\.output__
*160 tmng_0\.shift_reg_0\.shift_reg100_0\.inv_reg_11\.dlygate_0\.X_mut
*161 tmng_0\.shift_reg_0\.shift_reg100_0\.inv_reg_11\.dlygate_1\.A
*162 tmng_0\.shift_reg_0\.shift_reg100_0\.inv_reg_11\.dlygate_1\.X_mut
*163 tmng_0\.shift_reg_0\.shift_reg100_0\.inv_reg_11\.output__
*164 tmng_0\.shift_reg_0\.shift_reg100_0\.inv_reg_12\.dlygate_0\.X_mut
*165 tmng_0\.shift_reg_0\.shift_reg100_0\.inv_reg_12\.dlygate_1\.A
*166 tmng_0\.shift_reg_0\.shift_reg100_0\.inv_reg_12\.dlygate_1\.X_mut
*167 tmng_0\.shift_reg_0\.shift_reg100_0\.inv_reg_12\.output__
*168 tmng_0\.shift_reg_0\.shift_reg100_0\.inv_reg_13\.dlygate_0\.X_mut
*169 tmng_0\.shift_reg_0\.shift_reg100_0\.inv_reg_13\.dlygate_1\.A
*170 tmng_0\.shift_reg_0\.shift_reg100_0\.inv_reg_13\.dlygate_1\.X_mut
*171 tmng_0\.shift_reg_0\.shift_reg100_0\.inv_reg_13\.output__
*172 tmng_0\.shift_reg_0\.shift_reg100_0\.inv_reg_14\.dlygate_0\.X_mut
*173 tmng_0\.shift_reg_0\.shift_reg100_0\.inv_reg_14\.dlygate_1\.A
*174 tmng_0\.shift_reg_0\.shift_reg100_0\.inv_reg_14\.dlygate_1\.X_mut
*175 tmng_0\.shift_reg_0\.shift_reg100_0\.inv_reg_14\.output__
*176 tmng_0\.shift_reg_0\.shift_reg100_0\.inv_reg_15\.dlygate_0\.X_mut
*177 tmng_0\.shift_reg_0\.shift_reg100_0\.inv_reg_15\.dlygate_1\.A
*178 tmng_0\.shift_reg_0\.shift_reg100_0\.inv_reg_15\.dlygate_1\.X_mut
*179 tmng_0\.shift_reg_0\.shift_reg100_0\.inv_reg_15\.output__
*180 tmng_0\.shift_reg_0\.shift_reg100_0\.inv_reg_16\.dlygate_0\.X_mut
*181 tmng_0\.shift_reg_0\.shift_reg100_0\.inv_reg_16\.dlygate_1\.A
*182 tmng_0\.shift_reg_0\.shift_reg100_0\.inv_reg_16\.dlygate_1\.X_mut
*183 tmng_0\.shift_reg_0\.shift_reg100_0\.inv_reg_16\.output__
*184 tmng_0\.shift_reg_0\.shift_reg100_0\.inv_reg_17\.dlygate_0\.X_mut
*185 tmng_0\.shift_reg_0\.shift_reg100_0\.inv_reg_17\.dlygate_1\.A
*186 tmng_0\.shift_reg_0\.shift_reg100_0\.inv_reg_17\.dlygate_1\.X_mut
*187 tmng_0\.shift_reg_0\.shift_reg100_0\.inv_reg_17\.output__
*188 tmng_0\.shift_reg_0\.shift_reg100_0\.inv_reg_18\.dlygate_0\.X_mut
*189 tmng_0\.shift_reg_0\.shift_reg100_0\.inv_reg_18\.dlygate_1\.A
*190 tmng_0\.shift_reg_0\.shift_reg100_0\.inv_reg_18\.dlygate_1\.X_mut
*191 tmng_0\.shift_reg_0\.shift_reg100_0\.inv_reg_18\.output__
*192 tmng_0\.shift_reg_0\.shift_reg100_0\.inv_reg_19\.dlygate_0\.X_mut
*193 tmng_0\.shift_reg_0\.shift_reg100_0\.inv_reg_19\.dlygate_1\.A
*194 tmng_0\.shift_reg_0\.shift_reg100_0\.inv_reg_19\.dlygate_1\.X_mut
*195 tmng_0\.shift_reg_0\.shift_reg100_0\.inv_reg_19\.output__
*196 tmng_0\.shift_reg_0\.shift_reg100_0\.inv_reg_2\.dlygate_0\.X_mut
*197 tmng_0\.shift_reg_0\.shift_reg100_0\.inv_reg_2\.dlygate_1\.A
*198 tmng_0\.shift_reg_0\.shift_reg100_0\.inv_reg_2\.dlygate_1\.X_mut
*199 tmng_0\.shift_reg_0\.shift_reg100_0\.inv_reg_2\.output__
*200 tmng_0\.shift_reg_0\.shift_reg100_0\.inv_reg_20\.dlygate_0\.X_mut
*201 tmng_0\.shift_reg_0\.shift_reg100_0\.inv_reg_20\.dlygate_1\.A
*202 tmng_0\.shift_reg_0\.shift_reg100_0\.inv_reg_20\.dlygate_1\.X_mut
*203 tmng_0\.shift_reg_0\.shift_reg100_0\.inv_reg_20\.output__
*204 tmng_0\.shift_reg_0\.shift_reg100_0\.inv_reg_21\.dlygate_0\.X_mut
*205 tmng_0\.shift_reg_0\.shift_reg100_0\.inv_reg_21\.dlygate_1\.A
*206 tmng_0\.shift_reg_0\.shift_reg100_0\.inv_reg_21\.dlygate_1\.X_mut
*207 tmng_0\.shift_reg_0\.shift_reg100_0\.inv_reg_21\.output__
*208 tmng_0\.shift_reg_0\.shift_reg100_0\.inv_reg_22\.dlygate_0\.X_mut
*209 tmng_0\.shift_reg_0\.shift_reg100_0\.inv_reg_22\.dlygate_1\.A
*210 tmng_0\.shift_reg_0\.shift_reg100_0\.inv_reg_22\.dlygate_1\.X_mut
*211 tmng_0\.shift_reg_0\.shift_reg100_0\.inv_reg_22\.output__
*212 tmng_0\.shift_reg_0\.shift_reg100_0\.inv_reg_23\.dlygate_0\.X_mut
*213 tmng_0\.shift_reg_0\.shift_reg100_0\.inv_reg_23\.dlygate_1\.A
*214 tmng_0\.shift_reg_0\.shift_reg100_0\.inv_reg_23\.dlygate_1\.X_mut
*215 tmng_0\.shift_reg_0\.shift_reg100_0\.inv_reg_23\.output__
*216 tmng_0\.shift_reg_0\.shift_reg100_0\.inv_reg_24\.dlygate_0\.X_mut
*217 tmng_0\.shift_reg_0\.shift_reg100_0\.inv_reg_24\.dlygate_1\.A
*218 tmng_0\.shift_reg_0\.shift_reg100_0\.inv_reg_24\.dlygate_1\.X_mut
*219 tmng_0\.shift_reg_0\.shift_reg100_0\.inv_reg_24\.output__
*220 tmng_0\.shift_reg_0\.shift_reg100_0\.inv_reg_25\.dlygate_0\.X_mut
*221 tmng_0\.shift_reg_0\.shift_reg100_0\.inv_reg_25\.dlygate_1\.A
*222 tmng_0\.shift_reg_0\.shift_reg100_0\.inv_reg_25\.dlygate_1\.X_mut
*223 tmng_0\.shift_reg_0\.shift_reg100_0\.inv_reg_25\.output__
*224 tmng_0\.shift_reg_0\.shift_reg100_0\.inv_reg_26\.dlygate_0\.X_mut
*225 tmng_0\.shift_reg_0\.shift_reg100_0\.inv_reg_26\.dlygate_1\.A
*226 tmng_0\.shift_reg_0\.shift_reg100_0\.inv_reg_26\.dlygate_1\.X_mut
*227 tmng_0\.shift_reg_0\.shift_reg100_0\.inv_reg_26\.output__
*228 tmng_0\.shift_reg_0\.shift_reg100_0\.inv_reg_27\.dlygate_0\.X_mut
*229 tmng_0\.shift_reg_0\.shift_reg100_0\.inv_reg_27\.dlygate_1\.A
*230 tmng_0\.shift_reg_0\.shift_reg100_0\.inv_reg_27\.dlygate_1\.X_mut
*231 tmng_0\.shift_reg_0\.shift_reg100_0\.inv_reg_27\.output__
*232 tmng_0\.shift_reg_0\.shift_reg100_0\.inv_reg_28\.dlygate_0\.X_mut
*233 tmng_0\.shift_reg_0\.shift_reg100_0\.inv_reg_28\.dlygate_1\.A
*234 tmng_0\.shift_reg_0\.shift_reg100_0\.inv_reg_28\.dlygate_1\.X_mut
*235 tmng_0\.shift_reg_0\.shift_reg100_0\.inv_reg_28\.output__
*236 tmng_0\.shift_reg_0\.shift_reg100_0\.inv_reg_29\.dlygate_0\.X_mut
*237 tmng_0\.shift_reg_0\.shift_reg100_0\.inv_reg_29\.dlygate_1\.A
*238 tmng_0\.shift_reg_0\.shift_reg100_0\.inv_reg_29\.dlygate_1\.X_mut
*239 tmng_0\.shift_reg_0\.shift_reg100_0\.inv_reg_29\.output__
*240 tmng_0\.shift_reg_0\.shift_reg100_0\.inv_reg_3\.dlygate_0\.X_mut
*241 tmng_0\.shift_reg_0\.shift_reg100_0\.inv_reg_3\.dlygate_1\.A
*242 tmng_0\.shift_reg_0\.shift_reg100_0\.inv_reg_3\.dlygate_1\.X_mut
*243 tmng_0\.shift_reg_0\.shift_reg100_0\.inv_reg_3\.output__
*244 tmng_0\.shift_reg_0\.shift_reg100_0\.inv_reg_30\.dlygate_0\.X_mut
*245 tmng_0\.shift_reg_0\.shift_reg100_0\.inv_reg_30\.dlygate_1\.A
*246 tmng_0\.shift_reg_0\.shift_reg100_0\.inv_reg_30\.dlygate_1\.X_mut
*247 tmng_0\.shift_reg_0\.shift_reg100_0\.inv_reg_30\.output__
*248 tmng_0\.shift_reg_0\.shift_reg100_0\.inv_reg_31\.dlygate_0\.X_mut
*249 tmng_0\.shift_reg_0\.shift_reg100_0\.inv_reg_31\.dlygate_1\.A
*250 tmng_0\.shift_reg_0\.shift_reg100_0\.inv_reg_31\.dlygate_1\.X_mut
*251 tmng_0\.shift_reg_0\.shift_reg100_0\.inv_reg_31\.output__
*252 tmng_0\.shift_reg_0\.shift_reg100_0\.inv_reg_32\.dlygate_0\.X_mut
*253 tmng_0\.shift_reg_0\.shift_reg100_0\.inv_reg_32\.dlygate_1\.A
*254 tmng_0\.shift_reg_0\.shift_reg100_0\.inv_reg_32\.dlygate_1\.X_mut
*255 tmng_0\.shift_reg_0\.shift_reg100_0\.inv_reg_32\.output__
*256 tmng_0\.shift_reg_0\.shift_reg100_0\.inv_reg_33\.dlygate_0\.X_mut
*257 tmng_0\.shift_reg_0\.shift_reg100_0\.inv_reg_33\.dlygate_1\.A
*258 tmng_0\.shift_reg_0\.shift_reg100_0\.inv_reg_33\.dlygate_1\.X_mut
*259 tmng_0\.shift_reg_0\.shift_reg100_0\.inv_reg_33\.output__
*260 tmng_0\.shift_reg_0\.shift_reg100_0\.inv_reg_34\.dlygate_0\.X_mut
*261 tmng_0\.shift_reg_0\.shift_reg100_0\.inv_reg_34\.dlygate_1\.A
*262 tmng_0\.shift_reg_0\.shift_reg100_0\.inv_reg_34\.dlygate_1\.X_mut
*263 tmng_0\.shift_reg_0\.shift_reg100_0\.inv_reg_34\.output__
*264 tmng_0\.shift_reg_0\.shift_reg100_0\.inv_reg_35\.dlygate_0\.X_mut
*265 tmng_0\.shift_reg_0\.shift_reg100_0\.inv_reg_35\.dlygate_1\.A
*266 tmng_0\.shift_reg_0\.shift_reg100_0\.inv_reg_35\.dlygate_1\.X_mut
*267 tmng_0\.shift_reg_0\.shift_reg100_0\.inv_reg_35\.output__
*268 tmng_0\.shift_reg_0\.shift_reg100_0\.inv_reg_36\.dlygate_0\.X_mut
*269 tmng_0\.shift_reg_0\.shift_reg100_0\.inv_reg_36\.dlygate_1\.A
*270 tmng_0\.shift_reg_0\.shift_reg100_0\.inv_reg_36\.dlygate_1\.X_mut
*271 tmng_0\.shift_reg_0\.shift_reg100_0\.inv_reg_36\.output__
*272 tmng_0\.shift_reg_0\.shift_reg100_0\.inv_reg_37\.dlygate_0\.X_mut
*273 tmng_0\.shift_reg_0\.shift_reg100_0\.inv_reg_37\.dlygate_1\.A
*274 tmng_0\.shift_reg_0\.shift_reg100_0\.inv_reg_37\.dlygate_1\.X_mut
*275 tmng_0\.shift_reg_0\.shift_reg100_0\.inv_reg_37\.output__
*276 tmng_0\.shift_reg_0\.shift_reg100_0\.inv_reg_38\.dlygate_0\.X_mut
*277 tmng_0\.shift_reg_0\.shift_reg100_0\.inv_reg_38\.dlygate_1\.A
*278 tmng_0\.shift_reg_0\.shift_reg100_0\.inv_reg_38\.dlygate_1\.X_mut
*279 tmng_0\.shift_reg_0\.shift_reg100_0\.inv_reg_38\.output__
*280 tmng_0\.shift_reg_0\.shift_reg100_0\.inv_reg_39\.dlygate_0\.X_mut
*281 tmng_0\.shift_reg_0\.shift_reg100_0\.inv_reg_39\.dlygate_1\.A
*282 tmng_0\.shift_reg_0\.shift_reg100_0\.inv_reg_39\.dlygate_1\.X_mut
*283 tmng_0\.shift_reg_0\.shift_reg100_0\.inv_reg_39\.output__
*284 tmng_0\.shift_reg_0\.shift_reg100_0\.inv_reg_4\.dlygate_0\.X_mut
*285 tmng_0\.shift_reg_0\.shift_reg100_0\.inv_reg_4\.dlygate_1\.A
*286 tmng_0\.shift_reg_0\.shift_reg100_0\.inv_reg_4\.dlygate_1\.X_mut
*287 tmng_0\.shift_reg_0\.shift_reg100_0\.inv_reg_4\.output__
*288 tmng_0\.shift_reg_0\.shift_reg100_0\.inv_reg_40\.dlygate_0\.X_mut
*289 tmng_0\.shift_reg_0\.shift_reg100_0\.inv_reg_40\.dlygate_1\.A
*290 tmng_0\.shift_reg_0\.shift_reg100_0\.inv_reg_40\.dlygate_1\.X_mut
*291 tmng_0\.shift_reg_0\.shift_reg100_0\.inv_reg_40\.output__
*292 tmng_0\.shift_reg_0\.shift_reg100_0\.inv_reg_41\.dlygate_0\.X_mut
*293 tmng_0\.shift_reg_0\.shift_reg100_0\.inv_reg_41\.dlygate_1\.A
*294 tmng_0\.shift_reg_0\.shift_reg100_0\.inv_reg_41\.dlygate_1\.X_mut
*295 tmng_0\.shift_reg_0\.shift_reg100_0\.inv_reg_41\.output__
*296 tmng_0\.shift_reg_0\.shift_reg100_0\.inv_reg_42\.dlygate_0\.X_mut
*297 tmng_0\.shift_reg_0\.shift_reg100_0\.inv_reg_42\.dlygate_1\.A
*298 tmng_0\.shift_reg_0\.shift_reg100_0\.inv_reg_42\.dlygate_1\.X_mut
*299 tmng_0\.shift_reg_0\.shift_reg100_0\.inv_reg_42\.output__
*300 tmng_0\.shift_reg_0\.shift_reg100_0\.inv_reg_43\.dlygate_0\.X_mut
*301 tmng_0\.shift_reg_0\.shift_reg100_0\.inv_reg_43\.dlygate_1\.A
*302 tmng_0\.shift_reg_0\.shift_reg100_0\.inv_reg_43\.dlygate_1\.X_mut
*303 tmng_0\.shift_reg_0\.shift_reg100_0\.inv_reg_43\.output__
*304 tmng_0\.shift_reg_0\.shift_reg100_0\.inv_reg_44\.dlygate_0\.X_mut
*305 tmng_0\.shift_reg_0\.shift_reg100_0\.inv_reg_44\.dlygate_1\.A
*306 tmng_0\.shift_reg_0\.shift_reg100_0\.inv_reg_44\.dlygate_1\.X_mut
*307 tmng_0\.shift_reg_0\.shift_reg100_0\.inv_reg_44\.output__
*308 tmng_0\.shift_reg_0\.shift_reg100_0\.inv_reg_45\.dlygate_0\.X_mut
*309 tmng_0\.shift_reg_0\.shift_reg100_0\.inv_reg_45\.dlygate_1\.A
*310 tmng_0\.shift_reg_0\.shift_reg100_0\.inv_reg_45\.dlygate_1\.X_mut
*311 tmng_0\.shift_reg_0\.shift_reg100_0\.inv_reg_45\.output__
*312 tmng_0\.shift_reg_0\.shift_reg100_0\.inv_reg_46\.dlygate_0\.X_mut
*313 tmng_0\.shift_reg_0\.shift_reg100_0\.inv_reg_46\.dlygate_1\.A
*314 tmng_0\.shift_reg_0\.shift_reg100_0\.inv_reg_46\.dlygate_1\.X_mut
*315 tmng_0\.shift_reg_0\.shift_reg100_0\.inv_reg_46\.output__
*316 tmng_0\.shift_reg_0\.shift_reg100_0\.inv_reg_47\.dlygate_0\.X_mut
*317 tmng_0\.shift_reg_0\.shift_reg100_0\.inv_reg_47\.dlygate_1\.A
*318 tmng_0\.shift_reg_0\.shift_reg100_0\.inv_reg_47\.dlygate_1\.X_mut
*319 tmng_0\.shift_reg_0\.shift_reg100_0\.inv_reg_47\.output__
*320 tmng_0\.shift_reg_0\.shift_reg100_0\.inv_reg_48\.dlygate_0\.X_mut
*321 tmng_0\.shift_reg_0\.shift_reg100_0\.inv_reg_48\.dlygate_1\.A
*322 tmng_0\.shift_reg_0\.shift_reg100_0\.inv_reg_48\.dlygate_1\.X_mut
*323 tmng_0\.shift_reg_0\.shift_reg100_0\.inv_reg_48\.output__
*324 tmng_0\.shift_reg_0\.shift_reg100_0\.inv_reg_5\.dlygate_0\.X_mut
*325 tmng_0\.shift_reg_0\.shift_reg100_0\.inv_reg_5\.dlygate_1\.A
*326 tmng_0\.shift_reg_0\.shift_reg100_0\.inv_reg_5\.dlygate_1\.X_mut
*327 tmng_0\.shift_reg_0\.shift_reg100_0\.inv_reg_5\.output__
*328 tmng_0\.shift_reg_0\.shift_reg100_0\.inv_reg_6\.dlygate_0\.X_mut
*329 tmng_0\.shift_reg_0\.shift_reg100_0\.inv_reg_6\.dlygate_1\.A
*330 tmng_0\.shift_reg_0\.shift_reg100_0\.inv_reg_6\.dlygate_1\.X_mut
*331 tmng_0\.shift_reg_0\.shift_reg100_0\.inv_reg_6\.output__
*332 tmng_0\.shift_reg_0\.shift_reg100_0\.inv_reg_7\.dlygate_0\.X_mut
*333 tmng_0\.shift_reg_0\.shift_reg100_0\.inv_reg_7\.dlygate_1\.A
*334 tmng_0\.shift_reg_0\.shift_reg100_0\.inv_reg_7\.dlygate_1\.X_mut
*335 tmng_0\.shift_reg_0\.shift_reg100_0\.inv_reg_7\.output__
*336 tmng_0\.shift_reg_0\.shift_reg100_0\.inv_reg_8\.dlygate_0\.X_mut
*337 tmng_0\.shift_reg_0\.shift_reg100_0\.inv_reg_8\.dlygate_1\.A
*338 tmng_0\.shift_reg_0\.shift_reg100_0\.inv_reg_8\.dlygate_1\.X_mut
*339 tmng_0\.shift_reg_0\.shift_reg100_0\.inv_reg_8\.output__
*340 tmng_0\.shift_reg_0\.shift_reg100_0\.inv_reg_9\.dlygate_0\.X_mut
*341 tmng_0\.shift_reg_0\.shift_reg100_0\.inv_reg_9\.dlygate_1\.A
*342 tmng_0\.shift_reg_0\.shift_reg100_0\.inv_reg_9\.dlygate_1\.X_mut
*343 tmng_0\.shift_reg_0\.shift_reg100_0\.s1_val
*344 tmng_0\.shift_reg_0\.shift_reg100_0\.val
*345 tmng_0\.shift_reg_0\.shift_reg100_1\.inv_reg_0\.dlygate_0\.A
*346 tmng_0\.shift_reg_0\.shift_reg100_1\.inv_reg_0\.dlygate_0\.X_mut
*347 tmng_0\.shift_reg_0\.shift_reg100_1\.inv_reg_0\.dlygate_1\.A
*348 tmng_0\.shift_reg_0\.shift_reg100_1\.inv_reg_0\.dlygate_1\.X_mut
*349 tmng_0\.shift_reg_0\.shift_reg100_1\.inv_reg_0\.output__
*350 tmng_0\.shift_reg_0\.shift_reg100_1\.inv_reg_1\.dlygate_0\.X_mut
*351 tmng_0\.shift_reg_0\.shift_reg100_1\.inv_reg_1\.dlygate_1\.A
*352 tmng_0\.shift_reg_0\.shift_reg100_1\.inv_reg_1\.dlygate_1\.X_mut
*353 tmng_0\.shift_reg_0\.shift_reg100_1\.inv_reg_1\.output__
*354 tmng_0\.shift_reg_0\.shift_reg100_1\.inv_reg_10\.dlygate_0\.A
*355 tmng_0\.shift_reg_0\.shift_reg100_1\.inv_reg_10\.dlygate_0\.X_mut
*356 tmng_0\.shift_reg_0\.shift_reg100_1\.inv_reg_10\.dlygate_1\.A
*357 tmng_0\.shift_reg_0\.shift_reg100_1\.inv_reg_10\.dlygate_1\.X_mut
*358 tmng_0\.shift_reg_0\.shift_reg100_1\.inv_reg_10\.output__
*359 tmng_0\.shift_reg_0\.shift_reg100_1\.inv_reg_11\.dlygate_0\.X_mut
*360 tmng_0\.shift_reg_0\.shift_reg100_1\.inv_reg_11\.dlygate_1\.A
*361 tmng_0\.shift_reg_0\.shift_reg100_1\.inv_reg_11\.dlygate_1\.X_mut
*362 tmng_0\.shift_reg_0\.shift_reg100_1\.inv_reg_11\.output__
*363 tmng_0\.shift_reg_0\.shift_reg100_1\.inv_reg_12\.dlygate_0\.X_mut
*364 tmng_0\.shift_reg_0\.shift_reg100_1\.inv_reg_12\.dlygate_1\.A
*365 tmng_0\.shift_reg_0\.shift_reg100_1\.inv_reg_12\.dlygate_1\.X_mut
*366 tmng_0\.shift_reg_0\.shift_reg100_1\.inv_reg_12\.output__
*367 tmng_0\.shift_reg_0\.shift_reg100_1\.inv_reg_13\.dlygate_0\.X_mut
*368 tmng_0\.shift_reg_0\.shift_reg100_1\.inv_reg_13\.dlygate_1\.A
*369 tmng_0\.shift_reg_0\.shift_reg100_1\.inv_reg_13\.dlygate_1\.X_mut
*370 tmng_0\.shift_reg_0\.shift_reg100_1\.inv_reg_13\.output__
*371 tmng_0\.shift_reg_0\.shift_reg100_1\.inv_reg_14\.dlygate_0\.X_mut
*372 tmng_0\.shift_reg_0\.shift_reg100_1\.inv_reg_14\.dlygate_1\.A
*373 tmng_0\.shift_reg_0\.shift_reg100_1\.inv_reg_14\.dlygate_1\.X_mut
*374 tmng_0\.shift_reg_0\.shift_reg100_1\.inv_reg_14\.output__
*375 tmng_0\.shift_reg_0\.shift_reg100_1\.inv_reg_15\.dlygate_0\.X_mut
*376 tmng_0\.shift_reg_0\.shift_reg100_1\.inv_reg_15\.dlygate_1\.A
*377 tmng_0\.shift_reg_0\.shift_reg100_1\.inv_reg_15\.dlygate_1\.X_mut
*378 tmng_0\.shift_reg_0\.shift_reg100_1\.inv_reg_15\.output__
*379 tmng_0\.shift_reg_0\.shift_reg100_1\.inv_reg_16\.dlygate_0\.X_mut
*380 tmng_0\.shift_reg_0\.shift_reg100_1\.inv_reg_16\.dlygate_1\.A
*381 tmng_0\.shift_reg_0\.shift_reg100_1\.inv_reg_16\.dlygate_1\.X_mut
*382 tmng_0\.shift_reg_0\.shift_reg100_1\.inv_reg_16\.output__
*383 tmng_0\.shift_reg_0\.shift_reg100_1\.inv_reg_17\.dlygate_0\.X_mut
*384 tmng_0\.shift_reg_0\.shift_reg100_1\.inv_reg_17\.dlygate_1\.A
*385 tmng_0\.shift_reg_0\.shift_reg100_1\.inv_reg_17\.dlygate_1\.X_mut
*386 tmng_0\.shift_reg_0\.shift_reg100_1\.inv_reg_17\.output__
*387 tmng_0\.shift_reg_0\.shift_reg100_1\.inv_reg_18\.dlygate_0\.X_mut
*388 tmng_0\.shift_reg_0\.shift_reg100_1\.inv_reg_18\.dlygate_1\.A
*389 tmng_0\.shift_reg_0\.shift_reg100_1\.inv_reg_18\.dlygate_1\.X_mut
*390 tmng_0\.shift_reg_0\.shift_reg100_1\.inv_reg_18\.output__
*391 tmng_0\.shift_reg_0\.shift_reg100_1\.inv_reg_19\.dlygate_0\.X_mut
*392 tmng_0\.shift_reg_0\.shift_reg100_1\.inv_reg_19\.dlygate_1\.A
*393 tmng_0\.shift_reg_0\.shift_reg100_1\.inv_reg_19\.dlygate_1\.X_mut
*394 tmng_0\.shift_reg_0\.shift_reg100_1\.inv_reg_19\.output__
*395 tmng_0\.shift_reg_0\.shift_reg100_1\.inv_reg_2\.dlygate_0\.X_mut
*396 tmng_0\.shift_reg_0\.shift_reg100_1\.inv_reg_2\.dlygate_1\.A
*397 tmng_0\.shift_reg_0\.shift_reg100_1\.inv_reg_2\.dlygate_1\.X_mut
*398 tmng_0\.shift_reg_0\.shift_reg100_1\.inv_reg_2\.output__
*399 tmng_0\.shift_reg_0\.shift_reg100_1\.inv_reg_20\.dlygate_0\.X_mut
*400 tmng_0\.shift_reg_0\.shift_reg100_1\.inv_reg_20\.dlygate_1\.A
*401 tmng_0\.shift_reg_0\.shift_reg100_1\.inv_reg_20\.dlygate_1\.X_mut
*402 tmng_0\.shift_reg_0\.shift_reg100_1\.inv_reg_20\.output__
*403 tmng_0\.shift_reg_0\.shift_reg100_1\.inv_reg_21\.dlygate_0\.X_mut
*404 tmng_0\.shift_reg_0\.shift_reg100_1\.inv_reg_21\.dlygate_1\.A
*405 tmng_0\.shift_reg_0\.shift_reg100_1\.inv_reg_21\.dlygate_1\.X_mut
*406 tmng_0\.shift_reg_0\.shift_reg100_1\.inv_reg_21\.output__
*407 tmng_0\.shift_reg_0\.shift_reg100_1\.inv_reg_22\.dlygate_0\.X_mut
*408 tmng_0\.shift_reg_0\.shift_reg100_1\.inv_reg_22\.dlygate_1\.A
*409 tmng_0\.shift_reg_0\.shift_reg100_1\.inv_reg_22\.dlygate_1\.X_mut
*410 tmng_0\.shift_reg_0\.shift_reg100_1\.inv_reg_22\.output__
*411 tmng_0\.shift_reg_0\.shift_reg100_1\.inv_reg_23\.dlygate_0\.X_mut
*412 tmng_0\.shift_reg_0\.shift_reg100_1\.inv_reg_23\.dlygate_1\.A
*413 tmng_0\.shift_reg_0\.shift_reg100_1\.inv_reg_23\.dlygate_1\.X_mut
*414 tmng_0\.shift_reg_0\.shift_reg100_1\.inv_reg_23\.output__
*415 tmng_0\.shift_reg_0\.shift_reg100_1\.inv_reg_24\.dlygate_0\.X_mut
*416 tmng_0\.shift_reg_0\.shift_reg100_1\.inv_reg_24\.dlygate_1\.A
*417 tmng_0\.shift_reg_0\.shift_reg100_1\.inv_reg_24\.dlygate_1\.X_mut
*418 tmng_0\.shift_reg_0\.shift_reg100_1\.inv_reg_24\.output__
*419 tmng_0\.shift_reg_0\.shift_reg100_1\.inv_reg_25\.dlygate_0\.X_mut
*420 tmng_0\.shift_reg_0\.shift_reg100_1\.inv_reg_25\.dlygate_1\.A
*421 tmng_0\.shift_reg_0\.shift_reg100_1\.inv_reg_25\.dlygate_1\.X_mut
*422 tmng_0\.shift_reg_0\.shift_reg100_1\.inv_reg_25\.output__
*423 tmng_0\.shift_reg_0\.shift_reg100_1\.inv_reg_26\.dlygate_0\.X_mut
*424 tmng_0\.shift_reg_0\.shift_reg100_1\.inv_reg_26\.dlygate_1\.A
*425 tmng_0\.shift_reg_0\.shift_reg100_1\.inv_reg_26\.dlygate_1\.X_mut
*426 tmng_0\.shift_reg_0\.shift_reg100_1\.inv_reg_26\.output__
*427 tmng_0\.shift_reg_0\.shift_reg100_1\.inv_reg_27\.dlygate_0\.X_mut
*428 tmng_0\.shift_reg_0\.shift_reg100_1\.inv_reg_27\.dlygate_1\.A
*429 tmng_0\.shift_reg_0\.shift_reg100_1\.inv_reg_27\.dlygate_1\.X_mut
*430 tmng_0\.shift_reg_0\.shift_reg100_1\.inv_reg_27\.output__
*431 tmng_0\.shift_reg_0\.shift_reg100_1\.inv_reg_28\.dlygate_0\.X_mut
*432 tmng_0\.shift_reg_0\.shift_reg100_1\.inv_reg_28\.dlygate_1\.A
*433 tmng_0\.shift_reg_0\.shift_reg100_1\.inv_reg_28\.dlygate_1\.X_mut
*434 tmng_0\.shift_reg_0\.shift_reg100_1\.inv_reg_28\.output__
*435 tmng_0\.shift_reg_0\.shift_reg100_1\.inv_reg_29\.dlygate_0\.X_mut
*436 tmng_0\.shift_reg_0\.shift_reg100_1\.inv_reg_29\.dlygate_1\.A
*437 tmng_0\.shift_reg_0\.shift_reg100_1\.inv_reg_29\.dlygate_1\.X_mut
*438 tmng_0\.shift_reg_0\.shift_reg100_1\.inv_reg_29\.output__
*439 tmng_0\.shift_reg_0\.shift_reg100_1\.inv_reg_3\.dlygate_0\.X_mut
*440 tmng_0\.shift_reg_0\.shift_reg100_1\.inv_reg_3\.dlygate_1\.A
*441 tmng_0\.shift_reg_0\.shift_reg100_1\.inv_reg_3\.dlygate_1\.X_mut
*442 tmng_0\.shift_reg_0\.shift_reg100_1\.inv_reg_3\.output__
*443 tmng_0\.shift_reg_0\.shift_reg100_1\.inv_reg_30\.dlygate_0\.X_mut
*444 tmng_0\.shift_reg_0\.shift_reg100_1\.inv_reg_30\.dlygate_1\.A
*445 tmng_0\.shift_reg_0\.shift_reg100_1\.inv_reg_30\.dlygate_1\.X_mut
*446 tmng_0\.shift_reg_0\.shift_reg100_1\.inv_reg_30\.output__
*447 tmng_0\.shift_reg_0\.shift_reg100_1\.inv_reg_31\.dlygate_0\.X_mut
*448 tmng_0\.shift_reg_0\.shift_reg100_1\.inv_reg_31\.dlygate_1\.A
*449 tmng_0\.shift_reg_0\.shift_reg100_1\.inv_reg_31\.dlygate_1\.X_mut
*450 tmng_0\.shift_reg_0\.shift_reg100_1\.inv_reg_31\.output__
*451 tmng_0\.shift_reg_0\.shift_reg100_1\.inv_reg_32\.dlygate_0\.X_mut
*452 tmng_0\.shift_reg_0\.shift_reg100_1\.inv_reg_32\.dlygate_1\.A
*453 tmng_0\.shift_reg_0\.shift_reg100_1\.inv_reg_32\.dlygate_1\.X_mut
*454 tmng_0\.shift_reg_0\.shift_reg100_1\.inv_reg_32\.output__
*455 tmng_0\.shift_reg_0\.shift_reg100_1\.inv_reg_33\.dlygate_0\.X_mut
*456 tmng_0\.shift_reg_0\.shift_reg100_1\.inv_reg_33\.dlygate_1\.A
*457 tmng_0\.shift_reg_0\.shift_reg100_1\.inv_reg_33\.dlygate_1\.X_mut
*458 tmng_0\.shift_reg_0\.shift_reg100_1\.inv_reg_33\.output__
*459 tmng_0\.shift_reg_0\.shift_reg100_1\.inv_reg_34\.dlygate_0\.X_mut
*460 tmng_0\.shift_reg_0\.shift_reg100_1\.inv_reg_34\.dlygate_1\.A
*461 tmng_0\.shift_reg_0\.shift_reg100_1\.inv_reg_34\.dlygate_1\.X_mut
*462 tmng_0\.shift_reg_0\.shift_reg100_1\.inv_reg_34\.output__
*463 tmng_0\.shift_reg_0\.shift_reg100_1\.inv_reg_35\.dlygate_0\.X_mut
*464 tmng_0\.shift_reg_0\.shift_reg100_1\.inv_reg_35\.dlygate_1\.A
*465 tmng_0\.shift_reg_0\.shift_reg100_1\.inv_reg_35\.dlygate_1\.X_mut
*466 tmng_0\.shift_reg_0\.shift_reg100_1\.inv_reg_35\.output__
*467 tmng_0\.shift_reg_0\.shift_reg100_1\.inv_reg_36\.dlygate_0\.X_mut
*468 tmng_0\.shift_reg_0\.shift_reg100_1\.inv_reg_36\.dlygate_1\.A
*469 tmng_0\.shift_reg_0\.shift_reg100_1\.inv_reg_36\.dlygate_1\.X_mut
*470 tmng_0\.shift_reg_0\.shift_reg100_1\.inv_reg_36\.output__
*471 tmng_0\.shift_reg_0\.shift_reg100_1\.inv_reg_37\.dlygate_0\.X_mut
*472 tmng_0\.shift_reg_0\.shift_reg100_1\.inv_reg_37\.dlygate_1\.A
*473 tmng_0\.shift_reg_0\.shift_reg100_1\.inv_reg_37\.dlygate_1\.X_mut
*474 tmng_0\.shift_reg_0\.shift_reg100_1\.inv_reg_37\.output__
*475 tmng_0\.shift_reg_0\.shift_reg100_1\.inv_reg_38\.dlygate_0\.X_mut
*476 tmng_0\.shift_reg_0\.shift_reg100_1\.inv_reg_38\.dlygate_1\.A
*477 tmng_0\.shift_reg_0\.shift_reg100_1\.inv_reg_38\.dlygate_1\.X_mut
*478 tmng_0\.shift_reg_0\.shift_reg100_1\.inv_reg_38\.output__
*479 tmng_0\.shift_reg_0\.shift_reg100_1\.inv_reg_39\.dlygate_0\.X_mut
*480 tmng_0\.shift_reg_0\.shift_reg100_1\.inv_reg_39\.dlygate_1\.A
*481 tmng_0\.shift_reg_0\.shift_reg100_1\.inv_reg_39\.dlygate_1\.X_mut
*482 tmng_0\.shift_reg_0\.shift_reg100_1\.inv_reg_39\.output__
*483 tmng_0\.shift_reg_0\.shift_reg100_1\.inv_reg_4\.dlygate_0\.X_mut
*484 tmng_0\.shift_reg_0\.shift_reg100_1\.inv_reg_4\.dlygate_1\.A
*485 tmng_0\.shift_reg_0\.shift_reg100_1\.inv_reg_4\.dlygate_1\.X_mut
*486 tmng_0\.shift_reg_0\.shift_reg100_1\.inv_reg_4\.output__
*487 tmng_0\.shift_reg_0\.shift_reg100_1\.inv_reg_40\.dlygate_0\.X_mut
*488 tmng_0\.shift_reg_0\.shift_reg100_1\.inv_reg_40\.dlygate_1\.A
*489 tmng_0\.shift_reg_0\.shift_reg100_1\.inv_reg_40\.dlygate_1\.X_mut
*490 tmng_0\.shift_reg_0\.shift_reg100_1\.inv_reg_40\.output__
*491 tmng_0\.shift_reg_0\.shift_reg100_1\.inv_reg_41\.dlygate_0\.X_mut
*492 tmng_0\.shift_reg_0\.shift_reg100_1\.inv_reg_41\.dlygate_1\.A
*493 tmng_0\.shift_reg_0\.shift_reg100_1\.inv_reg_41\.dlygate_1\.X_mut
*494 tmng_0\.shift_reg_0\.shift_reg100_1\.inv_reg_41\.output__
*495 tmng_0\.shift_reg_0\.shift_reg100_1\.inv_reg_42\.dlygate_0\.X_mut
*496 tmng_0\.shift_reg_0\.shift_reg100_1\.inv_reg_42\.dlygate_1\.A
*497 tmng_0\.shift_reg_0\.shift_reg100_1\.inv_reg_42\.dlygate_1\.X_mut
*498 tmng_0\.shift_reg_0\.shift_reg100_1\.inv_reg_42\.output__
*499 tmng_0\.shift_reg_0\.shift_reg100_1\.inv_reg_43\.dlygate_0\.X_mut
*500 tmng_0\.shift_reg_0\.shift_reg100_1\.inv_reg_43\.dlygate_1\.A
*501 tmng_0\.shift_reg_0\.shift_reg100_1\.inv_reg_43\.dlygate_1\.X_mut
*502 tmng_0\.shift_reg_0\.shift_reg100_1\.inv_reg_43\.output__
*503 tmng_0\.shift_reg_0\.shift_reg100_1\.inv_reg_44\.dlygate_0\.X_mut
*504 tmng_0\.shift_reg_0\.shift_reg100_1\.inv_reg_44\.dlygate_1\.A
*505 tmng_0\.shift_reg_0\.shift_reg100_1\.inv_reg_44\.dlygate_1\.X_mut
*506 tmng_0\.shift_reg_0\.shift_reg100_1\.inv_reg_44\.output__
*507 tmng_0\.shift_reg_0\.shift_reg100_1\.inv_reg_45\.dlygate_0\.X_mut
*508 tmng_0\.shift_reg_0\.shift_reg100_1\.inv_reg_45\.dlygate_1\.A
*509 tmng_0\.shift_reg_0\.shift_reg100_1\.inv_reg_45\.dlygate_1\.X_mut
*510 tmng_0\.shift_reg_0\.shift_reg100_1\.inv_reg_45\.output__
*511 tmng_0\.shift_reg_0\.shift_reg100_1\.inv_reg_46\.dlygate_0\.X_mut
*512 tmng_0\.shift_reg_0\.shift_reg100_1\.inv_reg_46\.dlygate_1\.A
*513 tmng_0\.shift_reg_0\.shift_reg100_1\.inv_reg_46\.dlygate_1\.X_mut
*514 tmng_0\.shift_reg_0\.shift_reg100_1\.inv_reg_46\.output__
*515 tmng_0\.shift_reg_0\.shift_reg100_1\.inv_reg_47\.dlygate_0\.X_mut
*516 tmng_0\.shift_reg_0\.shift_reg100_1\.inv_reg_47\.dlygate_1\.A
*517 tmng_0\.shift_reg_0\.shift_reg100_1\.inv_reg_47\.dlygate_1\.X_mut
*518 tmng_0\.shift_reg_0\.shift_reg100_1\.inv_reg_47\.output__
*519 tmng_0\.shift_reg_0\.shift_reg100_1\.inv_reg_48\.dlygate_0\.X_mut
*520 tmng_0\.shift_reg_0\.shift_reg100_1\.inv_reg_48\.dlygate_1\.A
*521 tmng_0\.shift_reg_0\.shift_reg100_1\.inv_reg_48\.dlygate_1\.X_mut
*522 tmng_0\.shift_reg_0\.shift_reg100_1\.inv_reg_48\.output__
*523 tmng_0\.shift_reg_0\.shift_reg100_1\.inv_reg_5\.dlygate_0\.X_mut
*524 tmng_0\.shift_reg_0\.shift_reg100_1\.inv_reg_5\.dlygate_1\.A
*525 tmng_0\.shift_reg_0\.shift_reg100_1\.inv_reg_5\.dlygate_1\.X_mut
*526 tmng_0\.shift_reg_0\.shift_reg100_1\.inv_reg_5\.output__
*527 tmng_0\.shift_reg_0\.shift_reg100_1\.inv_reg_6\.dlygate_0\.X_mut
*528 tmng_0\.shift_reg_0\.shift_reg100_1\.inv_reg_6\.dlygate_1\.A
*529 tmng_0\.shift_reg_0\.shift_reg100_1\.inv_reg_6\.dlygate_1\.X_mut
*530 tmng_0\.shift_reg_0\.shift_reg100_1\.inv_reg_6\.output__
*531 tmng_0\.shift_reg_0\.shift_reg100_1\.inv_reg_7\.dlygate_0\.X_mut
*532 tmng_0\.shift_reg_0\.shift_reg100_1\.inv_reg_7\.dlygate_1\.A
*533 tmng_0\.shift_reg_0\.shift_reg100_1\.inv_reg_7\.dlygate_1\.X_mut
*534 tmng_0\.shift_reg_0\.shift_reg100_1\.inv_reg_7\.output__
*535 tmng_0\.shift_reg_0\.shift_reg100_1\.inv_reg_8\.dlygate_0\.X_mut
*536 tmng_0\.shift_reg_0\.shift_reg100_1\.inv_reg_8\.dlygate_1\.A
*537 tmng_0\.shift_reg_0\.shift_reg100_1\.inv_reg_8\.dlygate_1\.X_mut
*538 tmng_0\.shift_reg_0\.shift_reg100_1\.inv_reg_8\.output__
*539 tmng_0\.shift_reg_0\.shift_reg100_1\.inv_reg_9\.dlygate_0\.X_mut
*540 tmng_0\.shift_reg_0\.shift_reg100_1\.inv_reg_9\.dlygate_1\.A
*541 tmng_0\.shift_reg_0\.shift_reg100_1\.inv_reg_9\.dlygate_1\.X_mut
*542 tmng_0\.shift_reg_0\.shift_reg100_1\.s1_val
*543 tmng_0\.shift_reg_0\.shift_reg100_2\.inv_reg_0\.dlygate_0\.A
*544 tmng_0\.shift_reg_0\.shift_reg100_2\.inv_reg_0\.dlygate_0\.X_mut
*545 tmng_0\.shift_reg_0\.shift_reg100_2\.inv_reg_0\.dlygate_1\.A
*546 tmng_0\.shift_reg_0\.shift_reg100_2\.inv_reg_0\.dlygate_1\.X_mut
*547 tmng_0\.shift_reg_0\.shift_reg100_2\.inv_reg_0\.output__
*548 tmng_0\.shift_reg_0\.shift_reg100_2\.inv_reg_1\.dlygate_0\.X_mut
*549 tmng_0\.shift_reg_0\.shift_reg100_2\.inv_reg_1\.dlygate_1\.A
*550 tmng_0\.shift_reg_0\.shift_reg100_2\.inv_reg_1\.dlygate_1\.X_mut