*SPEF "ieee 1481-1999"
*DESIGN "tt_um_PS_PWM"
*DATE "22:43:58 Tuesday May 28, 2024"
*VENDOR "The OpenROAD Project"
*PROGRAM "OpenROAD"
*VERSION "da0053d7b0014ab9c87ea148875ff6c2a0f9b658"
*DESIGN_FLOW "NAME_SCOPE LOCAL" "PIN_CAP NONE"
*DIVIDER /
*DELIMITER :
*BUS_DELIMITER []
*T_UNIT 1 NS
*C_UNIT 1 PF
*R_UNIT 1 OHM
*L_UNIT 1 HENRY

*NAME_MAP
*3 clk
*4 ena
*5 rst_n
*6 ui_in[0]
*7 ui_in[1]
*8 ui_in[2]
*9 ui_in[3]
*10 ui_in[4]
*11 ui_in[5]
*12 ui_in[6]
*13 ui_in[7]
*14 uio_in[0]
*15 uio_in[1]
*16 uio_in[2]
*17 uio_in[3]
*18 uio_in[4]
*19 uio_in[5]
*20 uio_in[6]
*21 uio_in[7]
*22 net30
*23 net31
*24 net32
*25 net33
*26 net34
*27 net35
*28 net36
*29 net37
*30 net38
*31 net39
*32 net40
*33 net41
*34 net42
*35 net43
*36 net44
*37 net45
*38 uo_out[0]
*39 uo_out[1]
*40 uo_out[2]
*41 uo_out[3]
*42 uo_out[4]
*43 net46
*44 net47
*45 net48
*46 Dead_Time_Generator_inst_1\.clk
*47 Dead_Time_Generator_inst_1\.count_dt\[0\]
*48 Dead_Time_Generator_inst_1\.count_dt\[1\]
*49 Dead_Time_Generator_inst_1\.count_dt\[2\]
*50 Dead_Time_Generator_inst_1\.count_dt\[3\]
*51 Dead_Time_Generator_inst_1\.count_dt\[4\]
*52 Dead_Time_Generator_inst_1\.dt\[0\]
*53 Dead_Time_Generator_inst_1\.dt\[1\]
*54 Dead_Time_Generator_inst_1\.dt\[2\]
*55 Dead_Time_Generator_inst_1\.dt\[3\]
*56 Dead_Time_Generator_inst_1\.dt\[4\]
*57 Dead_Time_Generator_inst_1\.go
*58 Dead_Time_Generator_inst_2\.count_dt\[0\]
*59 Dead_Time_Generator_inst_2\.count_dt\[1\]
*60 Dead_Time_Generator_inst_2\.count_dt\[2\]
*61 Dead_Time_Generator_inst_2\.count_dt\[3\]
*62 Dead_Time_Generator_inst_2\.count_dt\[4\]
*63 Dead_Time_Generator_inst_2\.go
*64 Dead_Time_Generator_inst_3\.count_dt\[0\]
*65 Dead_Time_Generator_inst_3\.count_dt\[1\]
*66 Dead_Time_Generator_inst_3\.count_dt\[2\]
*67 Dead_Time_Generator_inst_3\.count_dt\[3\]
*68 Dead_Time_Generator_inst_3\.count_dt\[4\]
*69 Dead_Time_Generator_inst_3\.go
*70 Dead_Time_Generator_inst_4\.count_dt\[0\]
*71 Dead_Time_Generator_inst_4\.count_dt\[1\]
*72 Dead_Time_Generator_inst_4\.count_dt\[2\]
*73 Dead_Time_Generator_inst_4\.count_dt\[3\]
*74 Dead_Time_Generator_inst_4\.count_dt\[4\]
*75 Dead_Time_Generator_inst_4\.go
*76 NMOS1
*77 NMOS2
*78 PMOS1
*79 PMOS2
*80 Shift_Register_Inst\.data_out\[10\]
*81 Shift_Register_Inst\.data_out\[5\]
*82 Shift_Register_Inst\.data_out\[6\]
*83 Shift_Register_Inst\.data_out\[7\]
*84 Shift_Register_Inst\.data_out\[8\]
*85 Shift_Register_Inst\.data_out\[9\]
*86 Shift_Register_Inst\.shift_state\[0\]
*87 Shift_Register_Inst\.shift_state\[1\]
*88 Shift_Register_Inst\.shift_state\[2\]
*89 Shift_Register_Inst\.shift_state\[3\]
*90 Signal_Generator_1_0phase_inst\.count\[0\]
*91 Signal_Generator_1_0phase_inst\.count\[1\]
*92 Signal_Generator_1_0phase_inst\.count\[2\]
*93 Signal_Generator_1_0phase_inst\.count\[3\]
*94 Signal_Generator_1_0phase_inst\.count\[4\]
*95 Signal_Generator_1_0phase_inst\.count\[5\]
*96 Signal_Generator_1_0phase_inst\.direction
*97 Signal_Generator_1_180phase_inst\.count\[0\]
*98 Signal_Generator_1_180phase_inst\.count\[1\]
*99 Signal_Generator_1_180phase_inst\.count\[2\]
*100 Signal_Generator_1_180phase_inst\.count\[3\]
*101 Signal_Generator_1_180phase_inst\.count\[4\]
*102 Signal_Generator_1_180phase_inst\.count\[5\]
*103 Signal_Generator_1_180phase_inst\.direction
*104 Signal_Generator_1_270phase_inst\.count\[0\]
*105 Signal_Generator_1_270phase_inst\.count\[1\]
*106 Signal_Generator_1_270phase_inst\.count\[2\]
*107 Signal_Generator_1_270phase_inst\.count\[3\]
*108 Signal_Generator_1_270phase_inst\.count\[4\]
*109 Signal_Generator_1_270phase_inst\.count\[5\]
*110 Signal_Generator_1_270phase_inst\.direction
*111 Signal_Generator_1_90phase_inst\.count\[0\]
*112 Signal_Generator_1_90phase_inst\.count\[1\]
*113 Signal_Generator_1_90phase_inst\.count\[2\]
*114 Signal_Generator_1_90phase_inst\.count\[3\]
*115 Signal_Generator_1_90phase_inst\.count\[4\]
*116 Signal_Generator_1_90phase_inst\.count\[5\]
*117 Signal_Generator_1_90phase_inst\.direction
*118 Signal_Generator_2_0phase_inst\.count\[0\]
*119 Signal_Generator_2_0phase_inst\.count\[1\]
*120 Signal_Generator_2_0phase_inst\.count\[2\]
*121 Signal_Generator_2_0phase_inst\.count\[3\]
*122 Signal_Generator_2_0phase_inst\.count\[4\]
*123 Signal_Generator_2_0phase_inst\.count\[5\]
*124 Signal_Generator_2_0phase_inst\.direction
*125 Signal_Generator_2_180phase_inst\.count\[0\]
*126 Signal_Generator_2_180phase_inst\.count\[1\]
*127 Signal_Generator_2_180phase_inst\.count\[2\]
*128 Signal_Generator_2_180phase_inst\.count\[3\]
*129 Signal_Generator_2_180phase_inst\.count\[4\]
*130 Signal_Generator_2_180phase_inst\.count\[5\]
*131 Signal_Generator_2_180phase_inst\.direction
*132 Signal_Generator_2_270phase_inst\.count\[0\]
*133 Signal_Generator_2_270phase_inst\.count\[1\]
*134 Signal_Generator_2_270phase_inst\.count\[2\]
*135 Signal_Generator_2_270phase_inst\.count\[3\]
*136 Signal_Generator_2_270phase_inst\.count\[4\]
*137 Signal_Generator_2_270phase_inst\.count\[5\]
*138 Signal_Generator_2_270phase_inst\.direction
*139 Signal_Generator_2_90phase_inst\.count\[0\]
*140 Signal_Generator_2_90phase_inst\.count\[1\]
*141 Signal_Generator_2_90phase_inst\.count\[2\]
*142 Signal_Generator_2_90phase_inst\.count\[3\]
*143 Signal_Generator_2_90phase_inst\.count\[4\]
*144 Signal_Generator_2_90phase_inst\.count\[5\]
*145 Signal_Generator_2_90phase_inst\.direction
*146 _0000_
*147 _0001_
*148 _0002_
*149 _0003_
*150 _0004_
*151 _0005_
*152 _0006_
*153 _0007_
*154 _0008_
*155 _0009_
*156 _0010_
*157 _0011_
*158 _0012_
*159 _0013_
*160 _0014_
*161 _0015_
*162 _0016_
*163 _0017_
*164 _0018_
*165 _0019_
*166 _0020_
*167 _0021_
*168 _0022_
*169 _0023_
*170 _0024_
*171 _0025_
*172 _0026_
*173 _0027_
*174 _0028_
*175 _0029_
*176 _0030_
*177 _0031_
*178 _0032_
*179 _0033_
*180 _0034_
*181 _0035_
*182 _0036_
*183 _0037_
*184 _0038_
*185 _0039_
*186 _0040_
*187 _0041_
*188 _0042_
*189 _0043_
*190 _0044_
*191 _0045_
*192 _0046_
*193 _0047_
*194 _0048_
*195 _0049_
*196 _0050_
*197 _0051_
*198 _0052_
*199 _0053_
*200 _0054_
*201 _0055_
*202 _0056_
*203 _0057_
*204 _0058_
*205 _0059_
*206 _0060_
*207 _0061_
*208 _0062_
*209 _0063_
*210 _0064_
*211 _0065_
*212 _0066_
*213 _0067_
*214 _0068_
*215 _0069_
*216 _0070_
*217 _0071_
*218 _0072_
*219 _0073_
*220 _0074_
*221 _0075_
*222 _0076_
*223 _0077_
*224 _0078_
*225 _0079_
*226 _0080_
*227 _0081_
*228 _0082_
*229 _0083_
*230 _0084_
*231 _0085_
*232 _0086_
*233 _0087_
*234 _0088_
*235 _0089_
*236 _0090_
*237 _0091_
*238 _0092_
*239 _0093_
*240 _0094_
*241 _0095_
*242 _0096_
*243 _0097_
*244 _0098_
*245 _0099_
*246 _0100_
*247 _0101_
*248 _0102_
*249 _0103_
*250 _0104_
*251 _0105_
*252 _0106_
*253 _0107_
*254 _0108_
*255 _0109_
*256 _0110_
*257 _0111_
*258 _0112_
*259 _0113_
*260 _0114_
*261 _0115_
*262 _0116_
*263 _0117_
*264 _0118_
*265 _0119_
*266 _0120_
*267 _0121_
*268 _0122_
*269 _0123_
*270 _0124_
*271 _0125_
*272 _0126_
*273 _0127_
*274 _0128_
*275 _0129_
*276 _0130_
*277 _0131_
*278 _0132_
*279 _0133_
*280 _0134_
*281 _0135_
*282 _0136_
*283 _0137_
*284 _0138_
*285 _0139_
*286 _0140_
*287 _0141_
*288 _0142_
*289 _0143_
*290 _0144_
*291 _0145_
*292 _0146_
*293 _0147_
*294 _0148_
*295 _0149_
*296 _0150_
*297 _0151_
*298 _0152_
*299 _0153_
*300 _0154_
*301 _0155_
*302 _0156_
*303 _0157_
*304 _0158_
*305 _0159_
*306 _0160_
*307 _0161_
*308 _0162_
*309 _0163_
*310 _0164_
*311 _0165_
*312 _0166_
*313 _0167_
*314 _0168_
*315 _0169_
*316 _0170_
*317 _0171_
*318 _0172_
*319 _0173_
*320 _0174_
*321 _0175_
*322 _0176_
*323 _0177_
*324 _0178_
*325 _0179_
*326 _0180_
*327 _0181_
*328 _0182_
*329 _0183_
*330 _0184_
*331 _0185_
*332 _0186_
*333 _0187_
*334 _0188_
*335 _0189_
*336 _0190_
*337 _0191_
*338 _0192_
*339 _0193_
*340 _0194_
*341 _0195_
*342 _0196_
*343 _0197_
*344 _0198_
*345 _0199_
*346 _0200_
*347 _0201_
*348 _0202_
*349 _0203_
*350 _0204_
*351 _0205_
*352 _0206_
*353 _0207_
*354 _0208_
*355 _0209_
*356 _0210_
*357 _0211_
*358 _0212_
*359 _0213_
*360 _0214_
*361 _0215_
*362 _0216_
*363 _0217_
*364 _0218_
*365 _0219_
*366 _0220_
*367 _0221_
*368 _0222_
*369 _0223_
*370 _0224_
*371 _0225_
*372 _0226_
*373 _0227_
*374 _0228_
*375 _0229_
*376 _0230_
*377 _0231_
*378 _0232_
*379 _0233_
*380 _0234_
*381 _0235_
*382 _0236_
*383 _0237_
*384 _0238_
*385 _0239_
*386 _0240_
*387 _0241_
*388 _0242_
*389 _0243_
*390 _0244_
*391 _0245_
*392 _0246_
*393 _0247_
*394 _0248_
*395 _0249_
*396 _0250_
*397 _0251_
*398 _0252_
*399 _0253_
*400 _0254_
*401 _0255_
*402 _0256_
*403 _0257_
*404 _0258_
*405 _0259_
*406 _0260_
*407 _0261_
*408 _0262_
*409 _0263_
*410 _0264_
*411 _0265_
*412 _0266_
*413 _0267_
*414 _0268_
*415 _0269_
*416 _0270_
*417 _0271_
*418 _0272_
*419 _0273_
*420 _0274_
*421 _0275_
*422 _0276_
*423 _0277_
*424 _0278_
*425 _0279_
*426 _0280_
*427 _0281_
*428 _0282_
*429 _0283_
*430 _0284_
*431 _0285_
*432 _0286_
*433 _0287_
*434 _0288_
*435 _0289_
*436 _0290_
*437 _0291_
*438 _0292_
*439 _0293_
*440 _0294_
*441 _0295_
*442 _0296_
*443 _0297_
*444 _0298_
*445 _0299_
*446 _0300_
*447 _0301_
*448 _0302_
*449 _0303_
*450 _0304_
*451 _0305_
*452 _0306_
*453 _0307_
*454 _0308_
*455 _0309_
*456 _0310_
*457 _0311_
*458 _0312_
*459 _0313_
*460 _0314_
*461 _0315_
*462 _0316_
*463 _0317_
*464 _0318_
*465 _0319_
*466 _0320_
*467 _0321_
*468 _0322_
*469 _0323_
*470 _0324_
*471 _0325_
*472 _0326_
*473 _0327_
*474 _0328_
*475 _0329_
*476 _0330_
*477 _0331_
*478 _0332_
*479 _0333_
*480 _0334_
*481 _0335_
*482 _0336_
*483 _0337_
*484 _0338_
*485 _0339_
*486 _0340_
*487 _0341_
*488 _0342_
*489 _0343_
*490 _0344_
*491 _0345_
*492 _0346_
*493 _0347_
*494 _0348_
*495 _0349_
*496 _0350_
*497 _0351_
*498 _0352_
*499 _0353_
*500 _0354_
*501 _0355_
*502 _0356_
*503 _0357_
*504 _0358_
*505 _0359_
*506 _0360_
*507 _0361_
*508 _0362_
*509 _0363_
*510 _0364_
*511 _0365_
*512 _0366_
*513 _0367_
*514 _0368_
*515 _0369_
*516 _0370_
*517 _0371_
*518 _0372_
*519 _0373_
*520 _0374_
*521 _0375_
*522 _0376_
*523 _0377_
*524 _0378_
*525 _0379_
*526 _0380_
*527 _0381_
*528 _0382_
*529 _0383_
*530 _0384_
*531 _0385_
*532 _0386_
*533 _0387_
*534 _0388_
*535 _0389_
*536 _0390_
*537 _0391_
*538 _0392_
*539 _0393_
*540 _0394_
*541 _0395_
*542 _0396_
*543 _0397_
*544 _0398_
*545 _0399_
*546 _0400_
*547 _0401_
*548 _0402_
*549 _0403_
*550 _0404_
*551 _0405_
*552 _0406_
*553 _0407_
*554 _0408_
*555 _0409_
*556 _0410_
*557 _0411_
*558 _0412_
*559 _0413_
*560 _0414_
*561 _0415_
*562 _0416_
*563 _0417_
*564 _0418_
*565 _0419_
*566 _0420_
*567 _0421_
*568 _0422_
*569 _0423_
*570 _0424_
*571 _0425_
*572 _0426_
*573 _0427_
*574 _0428_
*575 _0429_
*576 _0430_
*577 _0431_
*578 _0432_
*579 _0433_
*580 _0434_
*581 _0435_
*582 _0436_
*583 _0437_
*584 _0438_
*585 _0439_
*586 _0440_
*587 _0441_
*588 _0442_
*589 _0443_
*590 _0444_
*591 _0445_
*592 _0446_
*593 _0447_
*594 _0448_
*595 _0449_
*596 _0450_
*597 _0451_
*598 _0452_
*599 _0453_
*600 _0454_
*601 _0455_
*602 _0456_
*603 _0457_
*604 _0458_
*605 _0459_
*606 _0460_
*607 _0461_
*608 _0462_
*609 _0463_
*610 _0464_
*611 _0465_
*612 _0466_
*613 _0467_
*614 _0468_
*615 _0469_
*616 _0470_
*617 _0471_
*618 _0472_
*619 _0473_
*620 _0474_
*621 _0475_
*622 _0476_
*623 _0477_
*624 _0478_
*625 _0479_
*626 _0480_
*627 _0481_
*628 _0482_
*629 _0483_
*630 _0484_
*631 _0485_
*632 _0486_
*633 _0487_
*634 _0488_
*635 _0489_
*636 _0490_
*637 _0491_
*638 _0492_
*639 _0493_
*640 _0494_
*641 _0495_
*642 _0496_
*643 _0497_
*644 _0498_
*645 _0499_
*646 _0500_
*647 _0501_
*648 _0502_
*649 _0503_
*650 _0504_
*651 _0505_
*652 _0506_
*653 _0507_
*654 clknet_0_Dead_Time_Generator_inst_1\.clk
*655 clknet_3_0__leaf_Dead_Time_Generator_inst_1\.clk
*656 clknet_3_1__leaf_Dead_Time_Generator_inst_1\.clk
*657 clknet_3_2__leaf_Dead_Time_Generator_inst_1\.clk
*658 clknet_3_3__leaf_Dead_Time_Generator_inst_1\.clk
*659 clknet_3_4__leaf_Dead_Time_Generator_inst_1\.clk
*660 clknet_3_5__leaf_Dead_Time_Generator_inst_1\.clk
*661 clknet_3_6__leaf_Dead_Time_Generator_inst_1\.clk
*662 clknet_3_7__leaf_Dead_Time_Generator_inst_1\.clk
*663 net1
*664 net10
*665 net11
*666 net12
*667 net13
*668 net14
*669 net15
*670 net16
*671 net17
*672 net18
*673 net19
*674 net2
*675 net20
*676 net21
*677 net22
*678 net23
*679 net24
*680 net25
*681 net26
*682 net27
*683 net28
*684 net29
*685 net3
*686 net4
*687 net49
*688 net5
*689 net50
*690 net51
*691 net52
*692 net53
*693 net54
*694 net55
*695 net56
*696 net57
*697 net58
*698 net59
*699 net6
*700 net60
*701 net61
*702 net62
*703 net63
*704 net64
*705 net65
*706 net66
*707 net67
*708 net68
*709 net69
*710 net7
*711 net70
*712 net71
*713 net72
*714 net73
*715 net74
*716 net75
*717 net76
*718 net77
*719 net78
*720 net79
*721 net8
*722 net80
*723 net81
*724 net82
*725 net83
*726 net84
*727 net85
*728 net86
*729 net87
*730 net88
*731 net89
*732 net9
*733 net90
*734 net91
*735 net92
*736 net93
*737 ANTENNA_1
*738 FILLER_0_0_109
*739 FILLER_0_0_113
*740 FILLER_0_0_125
*741 FILLER_0_0_137
*742 FILLER_0_0_141
*743 FILLER_0_0_15
*744 FILLER_0_0_153
*745 FILLER_0_0_165
*746 FILLER_0_0_169
*747 FILLER_0_0_181
*748 FILLER_0_0_193
*749 FILLER_0_0_197
*750 FILLER_0_0_209
*751 FILLER_0_0_221
*752 FILLER_0_0_225
*753 FILLER_0_0_237
*754 FILLER_0_0_249
*755 FILLER_0_0_253
*756 FILLER_0_0_265
*757 FILLER_0_0_27
*758 FILLER_0_0_277
*759 FILLER_0_0_281
*760 FILLER_0_0_29
*761 FILLER_0_0_293
*762 FILLER_0_0_3
*763 FILLER_0_0_305
*764 FILLER_0_0_309
*765 FILLER_0_0_321
*766 FILLER_0_0_333
*767 FILLER_0_0_41
*768 FILLER_0_0_53
*769 FILLER_0_0_57
*770 FILLER_0_0_69
*771 FILLER_0_0_81
*772 FILLER_0_0_85
*773 FILLER_0_0_97
*774 FILLER_0_10_103
*775 FILLER_0_10_114
*776 FILLER_0_10_138
*777 FILLER_0_10_146
*778 FILLER_0_10_15
*779 FILLER_0_10_158
*780 FILLER_0_10_164
*781 FILLER_0_10_185
*782 FILLER_0_10_193
*783 FILLER_0_10_197
*784 FILLER_0_10_209
*785 FILLER_0_10_221
*786 FILLER_0_10_233
*787 FILLER_0_10_245
*788 FILLER_0_10_251
*789 FILLER_0_10_253
*790 FILLER_0_10_265
*791 FILLER_0_10_27
*792 FILLER_0_10_277
*793 FILLER_0_10_289
*794 FILLER_0_10_29
*795 FILLER_0_10_3
*796 FILLER_0_10_301
*797 FILLER_0_10_307
*798 FILLER_0_10_309
*799 FILLER_0_10_321
*800 FILLER_0_10_333
*801 FILLER_0_10_41
*802 FILLER_0_10_61
*803 FILLER_0_10_73
*804 FILLER_0_10_81
*805 FILLER_0_10_85
*806 FILLER_0_10_97
*807 FILLER_0_11_100
*808 FILLER_0_11_11
*809 FILLER_0_11_113
*810 FILLER_0_11_119
*811 FILLER_0_11_129
*812 FILLER_0_11_133
*813 FILLER_0_11_145
*814 FILLER_0_11_157
*815 FILLER_0_11_165
*816 FILLER_0_11_190
*817 FILLER_0_11_202
*818 FILLER_0_11_225
*819 FILLER_0_11_237
*820 FILLER_0_11_249
*821 FILLER_0_11_261
*822 FILLER_0_11_273
*823 FILLER_0_11_279
*824 FILLER_0_11_281
*825 FILLER_0_11_293
*826 FILLER_0_11_3
*827 FILLER_0_11_305
*828 FILLER_0_11_317
*829 FILLER_0_11_329
*830 FILLER_0_11_35
*831 FILLER_0_11_43
*832 FILLER_0_11_51
*833 FILLER_0_11_55
*834 FILLER_0_11_78
*835 FILLER_0_12_110
*836 FILLER_0_12_119
*837 FILLER_0_12_125
*838 FILLER_0_12_139
*839 FILLER_0_12_141
*840 FILLER_0_12_15
*841 FILLER_0_12_153
*842 FILLER_0_12_195
*843 FILLER_0_12_229
*844 FILLER_0_12_241
*845 FILLER_0_12_249
*846 FILLER_0_12_253
*847 FILLER_0_12_265
*848 FILLER_0_12_269
*849 FILLER_0_12_27
*850 FILLER_0_12_29
*851 FILLER_0_12_293
*852 FILLER_0_12_3
*853 FILLER_0_12_305
*854 FILLER_0_12_309
*855 FILLER_0_12_321
*856 FILLER_0_12_333
*857 FILLER_0_12_47
*858 FILLER_0_12_72
*859 FILLER_0_12_85
*860 FILLER_0_13_118
*861 FILLER_0_13_15
*862 FILLER_0_13_152
*863 FILLER_0_13_164
*864 FILLER_0_13_169
*865 FILLER_0_13_178
*866 FILLER_0_13_202
*867 FILLER_0_13_225
*868 FILLER_0_13_237
*869 FILLER_0_13_259
*870 FILLER_0_13_26
*871 FILLER_0_13_277
*872 FILLER_0_13_281
*873 FILLER_0_13_3
*874 FILLER_0_13_305
*875 FILLER_0_13_317
*876 FILLER_0_13_329
*877 FILLER_0_13_38
*878 FILLER_0_13_46
*879 FILLER_0_13_54
*880 FILLER_0_13_69
*881 FILLER_0_13_81
*882 FILLER_0_13_89
*883 FILLER_0_13_98
*884 FILLER_0_14_111
*885 FILLER_0_14_123
*886 FILLER_0_14_138
*887 FILLER_0_14_147
*888 FILLER_0_14_15
*889 FILLER_0_14_159
*890 FILLER_0_14_171
*891 FILLER_0_14_195
*892 FILLER_0_14_202
*893 FILLER_0_14_206
*894 FILLER_0_14_228
*895 FILLER_0_14_240
*896 FILLER_0_14_246
*897 FILLER_0_14_250
*898 FILLER_0_14_26
*899 FILLER_0_14_288
*900 FILLER_0_14_29
*901 FILLER_0_14_299
*902 FILLER_0_14_3
*903 FILLER_0_14_307
*904 FILLER_0_14_314
*905 FILLER_0_14_326
*906 FILLER_0_14_334
*907 FILLER_0_14_35
*908 FILLER_0_14_44
*909 FILLER_0_14_52
*910 FILLER_0_14_67
*911 FILLER_0_14_79
*912 FILLER_0_14_83
*913 FILLER_0_14_85
*914 FILLER_0_14_89
*915 FILLER_0_15_109
*916 FILLER_0_15_121
*917 FILLER_0_15_144
*918 FILLER_0_15_156
*919 FILLER_0_15_169
*920 FILLER_0_15_195
*921 FILLER_0_15_203
*922 FILLER_0_15_217
*923 FILLER_0_15_223
*924 FILLER_0_15_248
*925 FILLER_0_15_252
*926 FILLER_0_15_278
*927 FILLER_0_15_286
*928 FILLER_0_15_294
*929 FILLER_0_15_3
*930 FILLER_0_15_323
*931 FILLER_0_15_41
*932 FILLER_0_15_45
*933 FILLER_0_15_52
*934 FILLER_0_15_57
*935 FILLER_0_15_68
*936 FILLER_0_15_9
*937 FILLER_0_15_92
*938 FILLER_0_15_96
*939 FILLER_0_16_109
*940 FILLER_0_16_121
*941 FILLER_0_16_127
*942 FILLER_0_16_131
*943 FILLER_0_16_158
*944 FILLER_0_16_170
*945 FILLER_0_16_197
*946 FILLER_0_16_209
*947 FILLER_0_16_232
*948 FILLER_0_16_244
*949 FILLER_0_16_253
*950 FILLER_0_16_257
*951 FILLER_0_16_261
*952 FILLER_0_16_267
*953 FILLER_0_16_287
*954 FILLER_0_16_3
*955 FILLER_0_16_334
*956 FILLER_0_16_44
*957 FILLER_0_16_7
*958 FILLER_0_16_77
*959 FILLER_0_16_93
*960 FILLER_0_17_11
*961 FILLER_0_17_116
*962 FILLER_0_17_131
*963 FILLER_0_17_135
*964 FILLER_0_17_154
*965 FILLER_0_17_161
*966 FILLER_0_17_173
*967 FILLER_0_17_184
*968 FILLER_0_17_196
*969 FILLER_0_17_208
*970 FILLER_0_17_220
*971 FILLER_0_17_225
*972 FILLER_0_17_233
*973 FILLER_0_17_238
*974 FILLER_0_17_242
*975 FILLER_0_17_249
*976 FILLER_0_17_257
*977 FILLER_0_17_287
*978 FILLER_0_17_299
*979 FILLER_0_17_3
*980 FILLER_0_17_323
*981 FILLER_0_17_332
*982 FILLER_0_17_38
*983 FILLER_0_17_50
*984 FILLER_0_17_70
*985 FILLER_0_17_82
*986 FILLER_0_17_88
*987 FILLER_0_18_130
*988 FILLER_0_18_138
*989 FILLER_0_18_15
*990 FILLER_0_18_156
*991 FILLER_0_18_168
*992 FILLER_0_18_19
*993 FILLER_0_18_205
*994 FILLER_0_18_228
*995 FILLER_0_18_24
*996 FILLER_0_18_261
*997 FILLER_0_18_269
*998 FILLER_0_18_280
*999 FILLER_0_18_29
*1000 FILLER_0_18_292
*1001 FILLER_0_18_3
*1002 FILLER_0_18_304
*1003 FILLER_0_18_309
*1004 FILLER_0_18_315
*1005 FILLER_0_18_327
*1006 FILLER_0_18_41
*1007 FILLER_0_18_53
*1008 FILLER_0_18_61
*1009 FILLER_0_18_65
*1010 FILLER_0_18_79
*1011 FILLER_0_18_83
*1012 FILLER_0_18_85
*1013 FILLER_0_18_89
*1014 FILLER_0_19_100
*1015 FILLER_0_19_120
*1016 FILLER_0_19_128
*1017 FILLER_0_19_137
*1018 FILLER_0_19_145
*1019 FILLER_0_19_15
*1020 FILLER_0_19_154
*1021 FILLER_0_19_166
*1022 FILLER_0_19_172
*1023 FILLER_0_19_184
*1024 FILLER_0_19_213
*1025 FILLER_0_19_232
*1026 FILLER_0_19_27
*1027 FILLER_0_19_274
*1028 FILLER_0_19_281
*1029 FILLER_0_19_293
*1030 FILLER_0_19_3
*1031 FILLER_0_19_301
*1032 FILLER_0_19_328
*1033 FILLER_0_19_334
*1034 FILLER_0_19_39
*1035 FILLER_0_19_51
*1036 FILLER_0_19_55
*1037 FILLER_0_19_78
*1038 FILLER_0_1_105
*1039 FILLER_0_1_111
*1040 FILLER_0_1_113
*1041 FILLER_0_1_125
*1042 FILLER_0_1_137
*1043 FILLER_0_1_149
*1044 FILLER_0_1_15
*1045 FILLER_0_1_161
*1046 FILLER_0_1_167
*1047 FILLER_0_1_169
*1048 FILLER_0_1_181
*1049 FILLER_0_1_193
*1050 FILLER_0_1_205
*1051 FILLER_0_1_217
*1052 FILLER_0_1_223
*1053 FILLER_0_1_225
*1054 FILLER_0_1_237
*1055 FILLER_0_1_249
*1056 FILLER_0_1_261
*1057 FILLER_0_1_27
*1058 FILLER_0_1_273
*1059 FILLER_0_1_279
*1060 FILLER_0_1_281
*1061 FILLER_0_1_293
*1062 FILLER_0_1_3
*1063 FILLER_0_1_305
*1064 FILLER_0_1_317
*1065 FILLER_0_1_329
*1066 FILLER_0_1_39
*1067 FILLER_0_1_51
*1068 FILLER_0_1_55
*1069 FILLER_0_1_57
*1070 FILLER_0_1_69
*1071 FILLER_0_1_81
*1072 FILLER_0_1_93
*1073 FILLER_0_20_126
*1074 FILLER_0_20_138
*1075 FILLER_0_20_148
*1076 FILLER_0_20_15
*1077 FILLER_0_20_156
*1078 FILLER_0_20_160
*1079 FILLER_0_20_175
*1080 FILLER_0_20_187
*1081 FILLER_0_20_195
*1082 FILLER_0_20_197
*1083 FILLER_0_20_206
*1084 FILLER_0_20_246
*1085 FILLER_0_20_253
*1086 FILLER_0_20_261
*1087 FILLER_0_20_27
*1088 FILLER_0_20_276
*1089 FILLER_0_20_280
*1090 FILLER_0_20_29
*1091 FILLER_0_20_3
*1092 FILLER_0_20_306
*1093 FILLER_0_20_334
*1094 FILLER_0_20_41
*1095 FILLER_0_20_49
*1096 FILLER_0_20_88
*1097 FILLER_0_20_96
*1098 FILLER_0_21_113
*1099 FILLER_0_21_125
*1100 FILLER_0_21_131
*1101 FILLER_0_21_143
*1102 FILLER_0_21_147
*1103 FILLER_0_21_15
*1104 FILLER_0_21_176
*1105 FILLER_0_21_188
*1106 FILLER_0_21_200
*1107 FILLER_0_21_212
*1108 FILLER_0_21_216
*1109 FILLER_0_21_223
*1110 FILLER_0_21_234
*1111 FILLER_0_21_246
*1112 FILLER_0_21_254
*1113 FILLER_0_21_27
*1114 FILLER_0_21_276
*1115 FILLER_0_21_281
*1116 FILLER_0_21_291
*1117 FILLER_0_21_3
*1118 FILLER_0_21_313
*1119 FILLER_0_21_57
*1120 FILLER_0_21_79
*1121 FILLER_0_21_85
*1122 FILLER_0_22_112
*1123 FILLER_0_22_118
*1124 FILLER_0_22_149
*1125 FILLER_0_22_15
*1126 FILLER_0_22_177
*1127 FILLER_0_22_182
*1128 FILLER_0_22_194
*1129 FILLER_0_22_197
*1130 FILLER_0_22_205
*1131 FILLER_0_22_217
*1132 FILLER_0_22_232
*1133 FILLER_0_22_244
*1134 FILLER_0_22_253
*1135 FILLER_0_22_27
*1136 FILLER_0_22_286
*1137 FILLER_0_22_29
*1138 FILLER_0_22_3
*1139 FILLER_0_22_331
*1140 FILLER_0_22_41
*1141 FILLER_0_22_53
*1142 FILLER_0_22_81
*1143 FILLER_0_22_85
*1144 FILLER_0_22_91
*1145 FILLER_0_22_99
*1146 FILLER_0_23_108
*1147 FILLER_0_23_134
*1148 FILLER_0_23_140
*1149 FILLER_0_23_15
*1150 FILLER_0_23_152
*1151 FILLER_0_23_164
*1152 FILLER_0_23_184
*1153 FILLER_0_23_207
*1154 FILLER_0_23_238
*1155 FILLER_0_23_250
*1156 FILLER_0_23_27
*1157 FILLER_0_23_270
*1158 FILLER_0_23_277
*1159 FILLER_0_23_281
*1160 FILLER_0_23_293
*1161 FILLER_0_23_3
*1162 FILLER_0_23_301
*1163 FILLER_0_23_306
*1164 FILLER_0_23_328
*1165 FILLER_0_23_334
*1166 FILLER_0_23_39
*1167 FILLER_0_23_51
*1168 FILLER_0_23_55
*1169 FILLER_0_23_81
*1170 FILLER_0_23_85
*1171 FILLER_0_24_100
*1172 FILLER_0_24_112
*1173 FILLER_0_24_124
*1174 FILLER_0_24_136
*1175 FILLER_0_24_141
*1176 FILLER_0_24_15
*1177 FILLER_0_24_153
*1178 FILLER_0_24_182
*1179 FILLER_0_24_188
*1180 FILLER_0_24_228
*1181 FILLER_0_24_246
*1182 FILLER_0_24_253
*1183 FILLER_0_24_269
*1184 FILLER_0_24_27
*1185 FILLER_0_24_281
*1186 FILLER_0_24_29
*1187 FILLER_0_24_297
*1188 FILLER_0_24_3
*1189 FILLER_0_24_329
*1190 FILLER_0_24_54
*1191 FILLER_0_24_62
*1192 FILLER_0_24_85
*1193 FILLER_0_24_93
*1194 FILLER_0_25_105
*1195 FILLER_0_25_111
*1196 FILLER_0_25_113
*1197 FILLER_0_25_130
*1198 FILLER_0_25_142
*1199 FILLER_0_25_15
*1200 FILLER_0_25_154
*1201 FILLER_0_25_167
*1202 FILLER_0_25_189
*1203 FILLER_0_25_197
*1204 FILLER_0_25_217
*1205 FILLER_0_25_223
*1206 FILLER_0_25_23
*1207 FILLER_0_25_246
*1208 FILLER_0_25_281
*1209 FILLER_0_25_289
*1210 FILLER_0_25_3
*1211 FILLER_0_25_311
*1212 FILLER_0_25_327
*1213 FILLER_0_25_51
*1214 FILLER_0_25_55
*1215 FILLER_0_25_57
*1216 FILLER_0_25_69
*1217 FILLER_0_25_81
*1218 FILLER_0_25_93
*1219 FILLER_0_26_103
*1220 FILLER_0_26_115
*1221 FILLER_0_26_141
*1222 FILLER_0_26_15
*1223 FILLER_0_26_153
*1224 FILLER_0_26_161
*1225 FILLER_0_26_186
*1226 FILLER_0_26_194
*1227 FILLER_0_26_197
*1228 FILLER_0_26_209
*1229 FILLER_0_26_221
*1230 FILLER_0_26_233
*1231 FILLER_0_26_245
*1232 FILLER_0_26_27
*1233 FILLER_0_26_284
*1234 FILLER_0_26_29
*1235 FILLER_0_26_296
*1236 FILLER_0_26_3
*1237 FILLER_0_26_317
*1238 FILLER_0_26_329
*1239 FILLER_0_26_54
*1240 FILLER_0_26_66
*1241 FILLER_0_26_78
*1242 FILLER_0_26_85
*1243 FILLER_0_26_91
*1244 FILLER_0_27_110
*1245 FILLER_0_27_113
*1246 FILLER_0_27_147
*1247 FILLER_0_27_159
*1248 FILLER_0_27_165
*1249 FILLER_0_27_169
*1250 FILLER_0_27_173
*1251 FILLER_0_27_177
*1252 FILLER_0_27_203
*1253 FILLER_0_27_215
*1254 FILLER_0_27_223
*1255 FILLER_0_27_245
*1256 FILLER_0_27_277
*1257 FILLER_0_27_287
*1258 FILLER_0_27_295
*1259 FILLER_0_27_3
*1260 FILLER_0_27_318
*1261 FILLER_0_27_33
*1262 FILLER_0_27_330
*1263 FILLER_0_27_334
*1264 FILLER_0_27_45
*1265 FILLER_0_27_53
*1266 FILLER_0_27_60
*1267 FILLER_0_27_72
*1268 FILLER_0_28_11
*1269 FILLER_0_28_119
*1270 FILLER_0_28_157
*1271 FILLER_0_28_165
*1272 FILLER_0_28_175
*1273 FILLER_0_28_192
*1274 FILLER_0_28_206
*1275 FILLER_0_28_218
*1276 FILLER_0_28_244
*1277 FILLER_0_28_249
*1278 FILLER_0_28_290
*1279 FILLER_0_28_3
*1280 FILLER_0_28_302
*1281 FILLER_0_28_309
*1282 FILLER_0_28_334
*1283 FILLER_0_28_44
*1284 FILLER_0_28_61
*1285 FILLER_0_28_67
*1286 FILLER_0_28_98
*1287 FILLER_0_29_132
*1288 FILLER_0_29_147
*1289 FILLER_0_29_159
*1290 FILLER_0_29_167
*1291 FILLER_0_29_169
*1292 FILLER_0_29_181
*1293 FILLER_0_29_213
*1294 FILLER_0_29_217
*1295 FILLER_0_29_234
*1296 FILLER_0_29_246
*1297 FILLER_0_29_252
*1298 FILLER_0_29_264
*1299 FILLER_0_29_281
*1300 FILLER_0_29_293
*1301 FILLER_0_29_3
*1302 FILLER_0_29_323
*1303 FILLER_0_29_37
*1304 FILLER_0_29_67
*1305 FILLER_0_29_7
*1306 FILLER_0_29_95
*1307 FILLER_0_2_109
*1308 FILLER_0_2_121
*1309 FILLER_0_2_133
*1310 FILLER_0_2_139
*1311 FILLER_0_2_141
*1312 FILLER_0_2_15
*1313 FILLER_0_2_153
*1314 FILLER_0_2_165
*1315 FILLER_0_2_177
*1316 FILLER_0_2_189
*1317 FILLER_0_2_195
*1318 FILLER_0_2_197
*1319 FILLER_0_2_209
*1320 FILLER_0_2_221
*1321 FILLER_0_2_233
*1322 FILLER_0_2_245
*1323 FILLER_0_2_251
*1324 FILLER_0_2_253
*1325 FILLER_0_2_265
*1326 FILLER_0_2_27
*1327 FILLER_0_2_277
*1328 FILLER_0_2_289
*1329 FILLER_0_2_29
*1330 FILLER_0_2_3
*1331 FILLER_0_2_301
*1332 FILLER_0_2_307
*1333 FILLER_0_2_309
*1334 FILLER_0_2_321
*1335 FILLER_0_2_333
*1336 FILLER_0_2_41
*1337 FILLER_0_2_53
*1338 FILLER_0_2_65
*1339 FILLER_0_2_77
*1340 FILLER_0_2_83
*1341 FILLER_0_2_85
*1342 FILLER_0_2_97
*1343 FILLER_0_30_110
*1344 FILLER_0_30_137
*1345 FILLER_0_30_141
*1346 FILLER_0_30_15
*1347 FILLER_0_30_153
*1348 FILLER_0_30_177
*1349 FILLER_0_30_189
*1350 FILLER_0_30_211
*1351 FILLER_0_30_215
*1352 FILLER_0_30_232
*1353 FILLER_0_30_244
*1354 FILLER_0_30_253
*1355 FILLER_0_30_26
*1356 FILLER_0_30_263
*1357 FILLER_0_30_276
*1358 FILLER_0_30_288
*1359 FILLER_0_30_29
*1360 FILLER_0_30_3
*1361 FILLER_0_30_300
*1362 FILLER_0_30_309
*1363 FILLER_0_30_333
*1364 FILLER_0_30_52
*1365 FILLER_0_30_61
*1366 FILLER_0_30_67
*1367 FILLER_0_30_72
*1368 FILLER_0_30_90
*1369 FILLER_0_30_98
*1370 FILLER_0_31_106
*1371 FILLER_0_31_113
*1372 FILLER_0_31_121
*1373 FILLER_0_31_128
*1374 FILLER_0_31_146
*1375 FILLER_0_31_15
*1376 FILLER_0_31_181
*1377 FILLER_0_31_203
*1378 FILLER_0_31_215
*1379 FILLER_0_31_223
*1380 FILLER_0_31_232
*1381 FILLER_0_31_244
*1382 FILLER_0_31_250
*1383 FILLER_0_31_267
*1384 FILLER_0_31_27
*1385 FILLER_0_31_278
*1386 FILLER_0_31_281
*1387 FILLER_0_31_289
*1388 FILLER_0_31_3
*1389 FILLER_0_31_312
*1390 FILLER_0_31_32
*1391 FILLER_0_31_324
*1392 FILLER_0_31_332
*1393 FILLER_0_31_44
*1394 FILLER_0_31_50
*1395 FILLER_0_31_57
*1396 FILLER_0_31_66
*1397 FILLER_0_31_78
*1398 FILLER_0_31_96
*1399 FILLER_0_32_111
*1400 FILLER_0_32_119
*1401 FILLER_0_32_127
*1402 FILLER_0_32_139
*1403 FILLER_0_32_141
*1404 FILLER_0_32_149
*1405 FILLER_0_32_189
*1406 FILLER_0_32_195
*1407 FILLER_0_32_197
*1408 FILLER_0_32_232
*1409 FILLER_0_32_244
*1410 FILLER_0_32_253
*1411 FILLER_0_32_27
*1412 FILLER_0_32_281
*1413 FILLER_0_32_29
*1414 FILLER_0_32_291
*1415 FILLER_0_32_297
*1416 FILLER_0_32_3
*1417 FILLER_0_32_303
*1418 FILLER_0_32_307
*1419 FILLER_0_32_309
*1420 FILLER_0_32_52
*1421 FILLER_0_32_60
*1422 FILLER_0_32_72
*1423 FILLER_0_32_81
*1424 FILLER_0_32_85
*1425 FILLER_0_33_103
*1426 FILLER_0_33_11
*1427 FILLER_0_33_113
*1428 FILLER_0_33_134
*1429 FILLER_0_33_138
*1430 FILLER_0_33_142
*1431 FILLER_0_33_154
*1432 FILLER_0_33_163
*1433 FILLER_0_33_167
*1434 FILLER_0_33_178
*1435 FILLER_0_33_212
*1436 FILLER_0_33_231
*1437 FILLER_0_33_243
*1438 FILLER_0_33_255
*1439 FILLER_0_33_263
*1440 FILLER_0_33_275
*1441 FILLER_0_33_279
*1442 FILLER_0_33_281
*1443 FILLER_0_33_295
*1444 FILLER_0_33_3
*1445 FILLER_0_33_311
*1446 FILLER_0_33_328
*1447 FILLER_0_33_334
*1448 FILLER_0_33_40
*1449 FILLER_0_33_65
*1450 FILLER_0_34_100
*1451 FILLER_0_34_108
*1452 FILLER_0_34_124
*1453 FILLER_0_34_130
*1454 FILLER_0_34_138
*1455 FILLER_0_34_141
*1456 FILLER_0_34_153
*1457 FILLER_0_34_165
*1458 FILLER_0_34_177
*1459 FILLER_0_34_185
*1460 FILLER_0_34_210
*1461 FILLER_0_34_239
*1462 FILLER_0_34_251
*1463 FILLER_0_34_253
*1464 FILLER_0_34_257
*1465 FILLER_0_34_26
*1466 FILLER_0_34_269
*1467 FILLER_0_34_281
*1468 FILLER_0_34_289
*1469 FILLER_0_34_3
*1470 FILLER_0_34_304
*1471 FILLER_0_34_309
*1472 FILLER_0_34_324
*1473 FILLER_0_34_332
*1474 FILLER_0_34_36
*1475 FILLER_0_34_48
*1476 FILLER_0_34_53
*1477 FILLER_0_34_58
*1478 FILLER_0_34_70
*1479 FILLER_0_34_82
*1480 FILLER_0_34_85
*1481 FILLER_0_34_89
*1482 FILLER_0_34_9
*1483 FILLER_0_35_101
*1484 FILLER_0_35_127
*1485 FILLER_0_35_133
*1486 FILLER_0_35_137
*1487 FILLER_0_35_141
*1488 FILLER_0_35_15
*1489 FILLER_0_35_158
*1490 FILLER_0_35_164
*1491 FILLER_0_35_172
*1492 FILLER_0_35_180
*1493 FILLER_0_35_213
*1494 FILLER_0_35_222
*1495 FILLER_0_35_232
*1496 FILLER_0_35_244
*1497 FILLER_0_35_248
*1498 FILLER_0_35_26
*1499 FILLER_0_35_275
*1500 FILLER_0_35_279
*1501 FILLER_0_35_285
*1502 FILLER_0_35_3
*1503 FILLER_0_35_306
*1504 FILLER_0_35_325
*1505 FILLER_0_35_333
*1506 FILLER_0_35_52
*1507 FILLER_0_35_57
*1508 FILLER_0_35_69
*1509 FILLER_0_35_81
*1510 FILLER_0_36_101
*1511 FILLER_0_36_128
*1512 FILLER_0_36_157
*1513 FILLER_0_36_169
*1514 FILLER_0_36_174
*1515 FILLER_0_36_184
*1516 FILLER_0_36_204
*1517 FILLER_0_36_216
*1518 FILLER_0_36_235
*1519 FILLER_0_36_247
*1520 FILLER_0_36_26
*1521 FILLER_0_36_29
*1522 FILLER_0_36_3
*1523 FILLER_0_36_309
*1524 FILLER_0_36_331
*1525 FILLER_0_36_70
*1526 FILLER_0_37_100
*1527 FILLER_0_37_118
*1528 FILLER_0_37_126
*1529 FILLER_0_37_144
*1530 FILLER_0_37_148
*1531 FILLER_0_37_159
*1532 FILLER_0_37_209
*1533 FILLER_0_37_213
*1534 FILLER_0_37_245
*1535 FILLER_0_37_269
*1536 FILLER_0_37_281
*1537 FILLER_0_37_29
*1538 FILLER_0_37_292
*1539 FILLER_0_37_298
*1540 FILLER_0_37_3
*1541 FILLER_0_37_49
*1542 FILLER_0_37_55
*1543 FILLER_0_37_57
*1544 FILLER_0_37_69
*1545 FILLER_0_37_77
*1546 FILLER_0_38_102
*1547 FILLER_0_38_106
*1548 FILLER_0_38_110
*1549 FILLER_0_38_113
*1550 FILLER_0_38_118
*1551 FILLER_0_38_122
*1552 FILLER_0_38_126