*SPEF "ieee 1481-1999"
*DESIGN "tt_um_unisnano"
*DATE "17:24:28 Friday May 31, 2024"
*VENDOR "The OpenROAD Project"
*PROGRAM "OpenROAD"
*VERSION "da0053d7b0014ab9c87ea148875ff6c2a0f9b658"
*DESIGN_FLOW "NAME_SCOPE LOCAL" "PIN_CAP NONE"
*DIVIDER /
*DELIMITER :
*BUS_DELIMITER []
*T_UNIT 1 NS
*C_UNIT 1 PF
*R_UNIT 1 OHM
*L_UNIT 1 HENRY

*NAME_MAP
*3 clk
*4 ena
*5 rst_n
*6 ui_in[0]
*7 ui_in[1]
*8 ui_in[2]
*9 ui_in[3]
*10 ui_in[4]
*11 ui_in[5]
*12 ui_in[6]
*13 ui_in[7]
*14 uio_in[0]
*15 uio_in[1]
*16 uio_in[2]
*17 uio_in[3]
*18 uio_in[4]
*19 uio_in[5]
*20 uio_in[6]
*21 uio_in[7]
*22 net12
*23 net13
*24 net14
*25 net15
*26 net16
*27 net17
*28 net18
*29 net19
*30 net20
*31 net21
*32 net22
*33 net23
*34 net24
*35 net25
*36 net26
*37 net27
*38 net28
*39 uo_out[1]
*40 uo_out[2]
*41 net29
*42 uo_out[4]
*43 net30
*44 net31
*45 net32
*46 _0000_
*47 _0001_
*48 _0002_
*49 _0003_
*50 _0004_
*51 _0005_
*52 _0006_
*53 _0007_
*54 _0008_
*55 _0009_
*56 _0010_
*57 _0011_
*58 _0012_
*59 _0013_
*60 _0014_
*61 _0015_
*62 _0016_
*63 _0017_
*64 _0018_
*65 _0019_
*66 _0020_
*67 _0021_
*68 _0022_
*69 _0023_
*70 _0024_
*71 _0025_
*72 _0026_
*73 _0027_
*74 _0028_
*75 _0029_
*76 _0030_
*77 _0031_
*78 _0032_
*79 _0033_
*80 _0034_
*81 _0035_
*82 _0036_
*83 _0037_
*84 _0038_
*85 _0039_
*86 _0040_
*87 _0041_
*88 _0042_
*89 _0043_
*90 _0044_
*91 _0045_
*92 _0046_
*93 _0047_
*94 _0048_
*95 _0049_
*96 _0050_
*97 _0051_
*98 _0052_
*99 _0053_
*100 _0054_
*101 _0055_
*102 _0056_
*103 _0057_
*104 _0058_
*105 _0059_
*106 _0060_
*107 _0061_
*108 _0062_
*109 _0063_
*110 _0064_
*111 _0065_
*112 _0066_
*113 _0067_
*114 _0068_
*115 _0069_
*116 _0070_
*117 _0071_
*118 _0072_
*119 _0073_
*120 _0074_
*121 _0075_
*122 _0076_
*123 _0077_
*124 _0078_
*125 _0079_
*126 _0080_
*127 _0081_
*128 _0082_
*129 _0083_
*130 _0084_
*131 _0085_
*132 _0086_
*133 _0087_
*134 _0088_
*135 _0089_
*136 _0090_
*137 _0091_
*138 _0092_
*139 _0093_
*140 _0094_
*141 _0095_
*142 _0096_
*143 _0097_
*144 _0098_
*145 _0099_
*146 _0100_
*147 _0101_
*148 _0102_
*149 _0103_
*150 _0104_
*151 _0105_
*152 _0106_
*153 _0107_
*154 _0108_
*155 _0109_
*156 _0110_
*157 _0111_
*158 _0112_
*159 _0113_
*160 _0114_
*161 _0115_
*162 _0116_
*163 _0117_
*164 _0118_
*165 _0119_
*166 _0120_
*167 _0121_
*168 _0122_
*169 _0123_
*170 _0124_
*171 _0125_
*172 _0126_
*173 _0127_
*174 _0128_
*175 _0129_
*176 _0130_
*177 _0131_
*178 _0132_
*179 _0133_
*180 _0134_
*181 _0135_
*182 _0136_
*183 _0137_
*184 _0138_
*185 _0139_
*186 _0140_
*187 _0141_
*188 _0142_
*189 _0143_
*190 _0144_
*191 _0145_
*192 _0146_
*193 _0147_
*194 _0148_
*195 _0149_
*196 _0150_
*197 _0151_
*198 _0152_
*199 _0153_
*200 _0154_
*201 _0155_
*202 _0156_
*203 _0157_
*204 _0158_
*205 _0159_
*206 _0160_
*207 _0161_
*208 _0162_
*209 _0163_
*210 _0164_
*211 _0165_
*212 _0166_
*213 _0167_
*214 _0168_
*215 _0169_
*216 _0170_
*217 _0171_
*218 _0172_
*219 _0173_
*220 _0174_
*221 _0175_
*222 _0176_
*223 _0177_
*224 _0178_
*225 _0179_
*226 _0180_
*227 _0181_
*228 _0182_
*229 _0183_
*230 _0184_
*231 _0185_
*232 _0186_
*233 _0187_
*234 _0188_
*235 _0189_
*236 _0190_
*237 _0191_
*238 _0192_
*239 _0193_
*240 _0194_
*241 _0195_
*242 _0196_
*243 _0197_
*244 _0198_
*245 _0199_
*246 _0200_
*247 _0201_
*248 _0202_
*249 _0203_
*250 _0204_
*251 _0205_
*252 _0206_
*253 _0207_
*254 _0208_
*255 _0209_
*256 _0210_
*257 _0211_
*258 _0212_
*259 _0213_
*260 _0214_
*261 _0215_
*262 _0216_
*263 _0217_
*264 _0218_
*265 _0219_
*266 _0220_
*267 _0221_
*268 _0222_
*269 _0223_
*270 _0224_
*271 _0225_
*272 _0226_
*273 _0227_
*274 _0228_
*275 _0229_
*276 _0230_
*277 _0231_
*278 _0232_
*279 _0233_
*280 _0234_
*281 _0235_
*282 _0236_
*283 _0237_
*284 _0238_
*285 _0239_
*286 _0240_
*287 _0241_
*288 _0242_
*289 _0243_
*290 _0244_
*291 _0245_
*292 _0246_
*293 _0247_
*294 _0248_
*295 _0249_
*296 _0250_
*297 _0251_
*298 _0252_
*299 _0253_
*300 _0254_
*301 _0255_
*302 _0256_
*303 _0257_
*304 _0258_
*305 _0259_
*306 _0260_
*307 _0261_
*308 _0262_
*309 _0263_
*310 _0264_
*311 _0265_
*312 _0266_
*313 _0267_
*314 _0268_
*315 _0269_
*316 _0270_
*317 _0271_
*318 _0272_
*319 _0273_
*320 _0274_
*321 _0275_
*322 _0276_
*323 _0277_
*324 _0278_
*325 _0279_
*326 _0280_
*327 _0281_
*328 _0282_
*329 _0283_
*330 _0284_
*331 _0285_
*332 _0286_
*333 _0287_
*334 _0288_
*335 _0289_
*336 _0290_
*337 _0291_
*338 _0292_
*339 _0293_
*340 _0294_
*341 _0295_
*342 _0296_
*343 _0297_
*344 _0298_
*345 _0299_
*346 _0300_
*347 _0301_
*348 _0302_
*349 _0303_
*350 _0304_
*351 _0305_
*352 _0306_
*353 _0307_
*354 _0308_
*355 _0309_
*356 _0310_
*357 _0311_
*358 _0312_
*359 _0313_
*360 _0314_
*361 _0315_
*362 _0316_
*363 _0317_
*364 _0318_
*365 _0319_
*366 _0320_
*367 _0321_
*368 _0322_
*369 _0323_
*370 _0324_
*371 _0325_
*372 _0326_
*373 _0327_
*374 _0328_
*375 _0329_
*376 _0330_
*377 _0331_
*378 _0332_
*379 _0333_
*380 _0334_
*381 _0335_
*382 _0336_
*383 _0337_
*384 _0338_
*385 _0339_
*386 _0340_
*387 _0341_
*388 _0342_
*389 _0343_
*390 _0344_
*391 _0345_
*392 _0346_
*393 _0347_
*394 _0348_
*395 _0349_
*396 _0350_
*397 _0351_
*398 _0352_
*399 _0353_
*400 _0354_
*401 _0355_
*402 _0356_
*403 _0357_
*404 _0358_
*405 _0359_
*406 _0360_
*407 _0361_
*408 _0362_
*409 _0363_
*410 _0364_
*411 _0365_
*412 _0366_
*413 _0367_
*414 _0368_
*415 _0369_
*416 _0370_
*417 _0371_
*418 _0372_
*419 _0373_
*420 _0374_
*421 _0375_
*422 _0376_
*423 _0377_
*424 _0378_
*425 _0379_
*426 _0380_
*427 _0381_
*428 _0382_
*429 _0383_
*430 _0384_
*431 _0385_
*432 _0386_
*433 _0387_
*434 _0388_
*435 _0389_
*436 _0390_
*437 _0391_
*438 _0392_
*439 _0393_
*440 _0394_
*441 _0395_
*442 _0396_
*443 _0397_
*444 _0398_
*445 _0399_
*446 _0400_
*447 _0401_
*448 _0402_
*449 _0403_
*450 _0404_
*451 _0405_
*452 _0406_
*453 _0407_
*454 _0408_
*455 _0409_
*456 _0410_
*457 _0411_
*458 _0412_
*459 _0413_
*460 _0414_
*461 _0415_
*462 _0416_
*463 _0417_
*464 _0418_
*465 _0419_
*466 _0420_
*467 _0421_
*468 _0422_
*469 _0423_
*470 _0424_
*471 _0425_
*472 _0426_
*473 _0427_
*474 _0428_
*475 _0429_
*476 _0430_
*477 _0431_
*478 _0432_
*479 _0433_
*480 _0434_
*481 _0435_
*482 _0436_
*483 _0437_
*484 _0438_
*485 _0439_
*486 _0440_
*487 _0441_
*488 _0442_
*489 _0443_
*490 _0444_
*491 _0445_
*492 _0446_
*493 _0447_
*494 _0448_
*495 _0449_
*496 _0450_
*497 _0451_
*498 _0452_
*499 _0453_
*500 _0454_
*501 _0455_
*502 _0456_
*503 _0457_
*504 _0458_
*505 _0459_
*506 _0460_
*507 _0461_
*508 _0462_
*509 _0463_
*510 _0464_
*511 _0465_
*512 _0466_
*513 _0467_
*514 _0468_
*515 _0469_
*516 _0470_
*517 _0471_
*518 _0472_
*519 _0473_
*520 _0474_
*521 _0475_
*522 _0476_
*523 _0477_
*524 _0478_
*525 _0479_
*526 _0480_
*527 _0481_
*528 _0482_
*529 _0483_
*530 _0484_
*531 _0485_
*532 _0486_
*533 _0487_
*534 _0488_
*535 _0489_
*536 _0490_
*537 _0491_
*538 _0492_
*539 _0493_
*540 _0494_
*541 _0495_
*542 _0496_
*543 _0497_
*544 _0498_
*545 _0499_
*546 _0500_
*547 _0501_
*548 _0502_
*549 _0503_
*550 _0504_
*551 _0505_
*552 _0506_
*553 _0507_
*554 _0508_
*555 _0509_
*556 _0510_
*557 _0511_
*558 _0512_
*559 _0513_
*560 _0514_
*561 _0515_
*562 _0516_
*563 _0517_
*564 _0518_
*565 _0519_
*566 _0520_
*567 _0521_
*568 _0522_
*569 _0523_
*570 _0524_
*571 _0525_
*572 _0526_
*573 _0527_
*574 _0528_
*575 _0529_
*576 _0530_
*577 _0531_
*578 _0532_
*579 _0533_
*580 _0534_
*581 _0535_
*582 _0536_
*583 _0537_
*584 _0538_
*585 _0539_
*586 _0540_
*587 _0541_
*588 _0542_
*589 _0543_
*590 _0544_
*591 _0545_
*592 _0546_
*593 _0547_
*594 _0548_
*595 _0549_
*596 _0550_
*597 _0551_
*598 _0552_
*599 _0553_
*600 _0554_
*601 _0555_
*602 _0556_
*603 _0557_
*604 _0558_
*605 _0559_
*606 _0560_
*607 _0561_
*608 _0562_
*609 _0563_
*610 _0564_
*611 _0565_
*612 _0566_
*613 _0567_
*614 _0568_
*615 _0569_
*616 _0570_
*617 _0571_
*618 _0572_
*619 _0573_
*620 _0574_
*621 _0575_
*622 _0576_
*623 _0577_
*624 _0578_
*625 _0579_
*626 _0580_
*627 _0581_
*628 _0582_
*629 _0583_
*630 _0584_
*631 _0585_
*632 _0586_
*633 _0587_
*634 _0588_
*635 _0589_
*636 _0590_
*637 _0591_
*638 _0592_
*639 _0593_
*640 _0594_
*641 _0595_
*642 _0596_
*643 _0597_
*644 _0598_
*645 _0599_
*646 _0600_
*647 _0601_
*648 _0602_
*649 _0603_
*650 _0604_
*651 _0605_
*652 _0606_
*653 _0607_
*654 _0608_
*655 _0609_
*656 _0610_
*657 _0611_
*658 _0612_
*659 _0613_
*660 _0614_
*661 _0615_
*662 _0616_
*663 _0617_
*664 _0618_
*665 _0619_
*666 _0620_
*667 _0621_
*668 _0622_
*669 _0623_
*670 _0624_
*671 _0625_
*672 _0626_
*673 _0627_
*674 _0628_
*675 _0629_
*676 _0630_
*677 _0631_
*678 _0632_
*679 _0633_
*680 _0634_
*681 _0635_
*682 _0636_
*683 _0637_
*684 _0638_
*685 _0639_
*686 _0640_
*687 _0641_
*688 _0642_
*689 _0643_
*690 _0644_
*691 _0645_
*692 _0646_
*693 _0647_
*694 _0648_
*695 _0649_
*696 _0650_
*697 _0651_
*698 _0652_
*699 _0653_
*700 _0654_
*701 _0655_
*702 _0656_
*703 _0657_
*704 _0658_
*705 _0659_
*706 _0660_
*707 _0661_
*708 _0662_
*709 _0663_
*710 _0664_
*711 _0665_
*712 _0666_
*713 _0667_
*714 _0668_
*715 _0669_
*716 _0670_
*717 _0671_
*718 _0672_
*719 _0673_
*720 _0674_
*721 _0675_
*722 _0676_
*723 _0677_
*724 _0678_
*725 _0679_
*726 _0680_
*727 _0681_
*728 _0682_
*729 _0683_
*730 _0684_
*731 baud_gen_unit\.q\[0\]
*732 baud_gen_unit\.q\[1\]
*733 baud_gen_unit\.q\[2\]
*734 baud_gen_unit\.q\[3\]
*735 baud_gen_unit\.q\[4\]
*736 baud_gen_unit\.q\[5\]
*737 baud_gen_unit\.q\[6\]
*738 baud_gen_unit\.q\[7\]
*739 baud_gen_unit\.q\[8\]
*740 baud_gen_unit\.q\[9\]
*741 baud_gen_unit\.r_next\[0\]
*742 baud_gen_unit\.r_next\[1\]
*743 baud_gen_unit\.r_next\[2\]
*744 baud_gen_unit\.r_next\[3\]
*745 baud_gen_unit\.r_next\[4\]
*746 baud_gen_unit\.r_next\[5\]
*747 baud_gen_unit\.r_next\[6\]
*748 baud_gen_unit\.r_next\[7\]
*749 baud_gen_unit\.r_next\[8\]
*750 baud_gen_unit\.r_next\[9\]
*751 clknet_0_clk
*752 clknet_4_0_0_clk
*753 clknet_4_10_0_clk
*754 clknet_4_11_0_clk
*755 clknet_4_12_0_clk
*756 clknet_4_13_0_clk
*757 clknet_4_14_0_clk
*758 clknet_4_15_0_clk
*759 clknet_4_1_0_clk
*760 clknet_4_2_0_clk
*761 clknet_4_3_0_clk
*762 clknet_4_4_0_clk
*763 clknet_4_5_0_clk
*764 clknet_4_6_0_clk
*765 clknet_4_7_0_clk
*766 clknet_4_8_0_clk
*767 clknet_4_9_0_clk
*768 counter\[0\]
*769 counter\[10\]
*770 counter\[11\]
*771 counter\[12\]
*772 counter\[13\]
*773 counter\[14\]
*774 counter\[15\]
*775 counter\[16\]
*776 counter\[17\]
*777 counter\[18\]
*778 counter\[19\]
*779 counter\[1\]
*780 counter\[20\]
*781 counter\[21\]
*782 counter\[22\]
*783 counter\[23\]
*784 counter\[24\]
*785 counter\[25\]
*786 counter\[26\]
*787 counter\[27\]
*788 counter\[28\]
*789 counter\[29\]
*790 counter\[2\]
*791 counter\[3\]
*792 counter\[4\]
*793 counter\[5\]
*794 counter\[6\]
*795 counter\[7\]
*796 counter\[8\]
*797 counter\[9\]
*798 menu_rom\.addr\[0\]
*799 menu_rom\.addr\[1\]
*800 menu_rom\.addr\[2\]
*801 menu_rom\.addr\[3\]
*802 menu_rom\.addr\[4\]
*803 menu_rom\.addr\[5\]
*804 menu_rom\.addr\[6\]
*805 menu_rom\.addr\[7\]
*806 menu_rom\.addr\[8\]
*807 menu_rom\.addr\[9\]
*808 menu_rom\.dout\[0\]
*809 menu_rom\.dout\[1\]
*810 menu_rom\.dout\[2\]
*811 menu_rom\.dout\[3\]
*812 menu_rom\.dout\[4\]
*813 menu_rom\.dout\[5\]
*814 menu_rom\.dout\[6\]
*815 net1
*816 net10
*817 net100
*818 net101
*819 net102
*820 net103
*821 net104
*822 net105
*823 net106
*824 net107
*825 net108
*826 net109
*827 net11
*828 net110
*829 net111
*830 net112
*831 net113
*832 net114
*833 net115
*834 net116
*835 net117
*836 net118
*837 net119
*838 net120
*839 net121
*840 net122
*841 net123
*842 net124
*843 net125
*844 net126
*845 net127
*846 net128
*847 net129
*848 net130
*849 net131
*850 net2
*851 net3
*852 net33
*853 net34
*854 net35
*855 net36
*856 net37
*857 net38
*858 net39
*859 net4
*860 net40
*861 net41
*862 net42
*863 net43
*864 net44
*865 net45
*866 net46
*867 net47
*868 net48
*869 net49
*870 net5
*871 net50
*872 net51
*873 net52
*874 net53
*875 net54
*876 net55
*877 net56
*878 net57
*879 net58
*880 net59
*881 net6
*882 net60
*883 net61
*884 net62
*885 net63
*886 net64
*887 net65
*888 net66
*889 net67
*890 net68
*891 net69
*892 net7
*893 net70
*894 net71
*895 net72
*896 net73
*897 net74
*898 net75
*899 net76
*900 net77
*901 net78
*902 net79
*903 net8
*904 net80
*905 net81
*906 net82
*907 net83
*908 net84
*909 net85
*910 net86
*911 net87
*912 net88
*913 net89
*914 net9
*915 net90
*916 net91
*917 net92
*918 net93
*919 net94
*920 net95
*921 net96
*922 net97
*923 net98
*924 net99
*925 output1
*926 output2
*927 start_addr\[0\]
*928 start_addr\[1\]
*929 start_addr\[3\]
*930 start_addr\[6\]
*931 state\[0\]
*932 state\[1\]
*933 state\[2\]
*934 state\[3\]
*935 stop_addr\[0\]
*936 stop_addr\[3\]
*937 stop_addr\[5\]
*938 stop_addr\[6\]
*939 stop_addr\[7\]
*940 tx_start
*941 uart_rx_unit\.b_next\[0\]
*942 uart_rx_unit\.b_next\[1\]
*943 uart_rx_unit\.b_next\[2\]
*944 uart_rx_unit\.b_next\[3\]
*945 uart_rx_unit\.b_next\[4\]
*946 uart_rx_unit\.b_next\[5\]
*947 uart_rx_unit\.b_next\[6\]
*948 uart_rx_unit\.b_reg\[0\]
*949 uart_rx_unit\.n_reg\[0\]
*950 uart_rx_unit\.n_reg\[1\]
*951 uart_rx_unit\.n_reg\[2\]
*952 uart_rx_unit\.s_reg\[0\]
*953 uart_rx_unit\.s_reg\[1\]
*954 uart_rx_unit\.s_reg\[2\]
*955 uart_rx_unit\.s_reg\[3\]
*956 uart_rx_unit\.state_reg\[0\]
*957 uart_rx_unit\.state_reg\[1\]
*958 uart_tx_unit\.b_reg\[0\]
*959 uart_tx_unit\.b_reg\[1\]
*960 uart_tx_unit\.b_reg\[2\]
*961 uart_tx_unit\.b_reg\[3\]
*962 uart_tx_unit\.b_reg\[4\]
*963 uart_tx_unit\.b_reg\[5\]
*964 uart_tx_unit\.b_reg\[6\]
*965 uart_tx_unit\.din\[0\]
*966 uart_tx_unit\.din\[1\]
*967 uart_tx_unit\.din\[2\]
*968 uart_tx_unit\.din\[3\]
*969 uart_tx_unit\.din\[4\]
*970 uart_tx_unit\.din\[5\]
*971 uart_tx_unit\.din\[6\]
*972 uart_tx_unit\.n_reg\[0\]
*973 uart_tx_unit\.n_reg\[1\]
*974 uart_tx_unit\.n_reg\[2\]
*975 uart_tx_unit\.s_reg\[0\]
*976 uart_tx_unit\.s_reg\[1\]
*977 uart_tx_unit\.s_reg\[2\]
*978 uart_tx_unit\.s_reg\[3\]
*979 uart_tx_unit\.state_reg\[0\]
*980 uart_tx_unit\.state_reg\[1\]
*981 uart_tx_unit\.tx
*982 uart_tx_unit\.tx_next
*983 FILLER_0_0_109
*984 FILLER_0_0_113
*985 FILLER_0_0_125
*986 FILLER_0_0_137
*987 FILLER_0_0_141
*988 FILLER_0_0_15
*989 FILLER_0_0_153
*990 FILLER_0_0_165
*991 FILLER_0_0_169
*992 FILLER_0_0_181
*993 FILLER_0_0_193
*994 FILLER_0_0_197
*995 FILLER_0_0_209
*996 FILLER_0_0_221
*997 FILLER_0_0_225
*998 FILLER_0_0_237
*999 FILLER_0_0_249
*1000 FILLER_0_0_253
*1001 FILLER_0_0_265
*1002 FILLER_0_0_27
*1003 FILLER_0_0_277
*1004 FILLER_0_0_281
*1005 FILLER_0_0_29
*1006 FILLER_0_0_293
*1007 FILLER_0_0_3
*1008 FILLER_0_0_305
*1009 FILLER_0_0_309
*1010 FILLER_0_0_321
*1011 FILLER_0_0_333
*1012 FILLER_0_0_41
*1013 FILLER_0_0_53
*1014 FILLER_0_0_57
*1015 FILLER_0_0_69
*1016 FILLER_0_0_81
*1017 FILLER_0_0_85
*1018 FILLER_0_0_97
*1019 FILLER_0_10_110
*1020 FILLER_0_10_125
*1021 FILLER_0_10_15
*1022 FILLER_0_10_152
*1023 FILLER_0_10_165
*1024 FILLER_0_10_180
*1025 FILLER_0_10_189
*1026 FILLER_0_10_195
*1027 FILLER_0_10_197
*1028 FILLER_0_10_213
*1029 FILLER_0_10_221
*1030 FILLER_0_10_236
*1031 FILLER_0_10_240
*1032 FILLER_0_10_245
*1033 FILLER_0_10_251
*1034 FILLER_0_10_253
*1035 FILLER_0_10_27
*1036 FILLER_0_10_271
*1037 FILLER_0_10_29
*1038 FILLER_0_10_293
*1039 FILLER_0_10_3
*1040 FILLER_0_10_300
*1041 FILLER_0_10_317
*1042 FILLER_0_10_330
*1043 FILLER_0_10_334
*1044 FILLER_0_10_41
*1045 FILLER_0_10_53
*1046 FILLER_0_10_65
*1047 FILLER_0_10_69
*1048 FILLER_0_10_93
*1049 FILLER_0_11_102
*1050 FILLER_0_11_110
*1051 FILLER_0_11_113
*1052 FILLER_0_11_119
*1053 FILLER_0_11_126
*1054 FILLER_0_11_134
*1055 FILLER_0_11_146
*1056 FILLER_0_11_15
*1057 FILLER_0_11_150
*1058 FILLER_0_11_158
*1059 FILLER_0_11_166
*1060 FILLER_0_11_169
*1061 FILLER_0_11_178
*1062 FILLER_0_11_190
*1063 FILLER_0_11_197
*1064 FILLER_0_11_201
*1065 FILLER_0_11_212
*1066 FILLER_0_11_225
*1067 FILLER_0_11_233
*1068 FILLER_0_11_239
*1069 FILLER_0_11_248
*1070 FILLER_0_11_254
*1071 FILLER_0_11_263
*1072 FILLER_0_11_27
*1073 FILLER_0_11_275
*1074 FILLER_0_11_279
*1075 FILLER_0_11_289
*1076 FILLER_0_11_299
*1077 FILLER_0_11_3
*1078 FILLER_0_11_309
*1079 FILLER_0_11_317
*1080 FILLER_0_11_325
*1081 FILLER_0_11_333
*1082 FILLER_0_11_39
*1083 FILLER_0_11_51
*1084 FILLER_0_11_55
*1085 FILLER_0_11_57
*1086 FILLER_0_11_88
*1087 FILLER_0_12_103
*1088 FILLER_0_12_124
*1089 FILLER_0_12_138
*1090 FILLER_0_12_15
*1091 FILLER_0_12_163
*1092 FILLER_0_12_193
*1093 FILLER_0_12_197
*1094 FILLER_0_12_201
*1095 FILLER_0_12_209
*1096 FILLER_0_12_228
*1097 FILLER_0_12_247
*1098 FILLER_0_12_251
*1099 FILLER_0_12_253
*1100 FILLER_0_12_27
*1101 FILLER_0_12_273
*1102 FILLER_0_12_281
*1103 FILLER_0_12_29
*1104 FILLER_0_12_290
*1105 FILLER_0_12_3
*1106 FILLER_0_12_307
*1107 FILLER_0_12_321
*1108 FILLER_0_12_327
*1109 FILLER_0_12_41
*1110 FILLER_0_12_53
*1111 FILLER_0_12_65
*1112 FILLER_0_12_73
*1113 FILLER_0_12_77
*1114 FILLER_0_12_85
*1115 FILLER_0_13_128
*1116 FILLER_0_13_136
*1117 FILLER_0_13_145
*1118 FILLER_0_13_15
*1119 FILLER_0_13_151
*1120 FILLER_0_13_155
*1121 FILLER_0_13_159
*1122 FILLER_0_13_169
*1123 FILLER_0_13_181
*1124 FILLER_0_13_193
*1125 FILLER_0_13_215
*1126 FILLER_0_13_223
*1127 FILLER_0_13_256
*1128 FILLER_0_13_264
*1129 FILLER_0_13_27
*1130 FILLER_0_13_275
*1131 FILLER_0_13_279
*1132 FILLER_0_13_281
*1133 FILLER_0_13_289
*1134 FILLER_0_13_299
*1135 FILLER_0_13_3
*1136 FILLER_0_13_311
*1137 FILLER_0_13_39
*1138 FILLER_0_13_51
*1139 FILLER_0_13_55
*1140 FILLER_0_13_57
*1141 FILLER_0_13_69
*1142 FILLER_0_13_81
*1143 FILLER_0_13_85
*1144 FILLER_0_13_92
*1145 FILLER_0_14_101
*1146 FILLER_0_14_113
*1147 FILLER_0_14_139
*1148 FILLER_0_14_15
*1149 FILLER_0_14_157
*1150 FILLER_0_14_169
*1151 FILLER_0_14_192
*1152 FILLER_0_14_236
*1153 FILLER_0_14_246
*1154 FILLER_0_14_253
*1155 FILLER_0_14_265
*1156 FILLER_0_14_27
*1157 FILLER_0_14_274
*1158 FILLER_0_14_29
*1159 FILLER_0_14_3
*1160 FILLER_0_14_306
*1161 FILLER_0_14_309
*1162 FILLER_0_14_315
*1163 FILLER_0_14_327
*1164 FILLER_0_14_41
*1165 FILLER_0_14_53
*1166 FILLER_0_14_65
*1167 FILLER_0_14_77
*1168 FILLER_0_15_110
*1169 FILLER_0_15_113
*1170 FILLER_0_15_121
*1171 FILLER_0_15_129
*1172 FILLER_0_15_133
*1173 FILLER_0_15_137
*1174 FILLER_0_15_141
*1175 FILLER_0_15_148
*1176 FILLER_0_15_15
*1177 FILLER_0_15_154
*1178 FILLER_0_15_163
*1179 FILLER_0_15_167
*1180 FILLER_0_15_189
*1181 FILLER_0_15_201
*1182 FILLER_0_15_205
*1183 FILLER_0_15_220
*1184 FILLER_0_15_225
*1185 FILLER_0_15_234
*1186 FILLER_0_15_238
*1187 FILLER_0_15_242
*1188 FILLER_0_15_250
*1189 FILLER_0_15_262
*1190 FILLER_0_15_266
*1191 FILLER_0_15_27
*1192 FILLER_0_15_3
*1193 FILLER_0_15_309
*1194 FILLER_0_15_320
*1195 FILLER_0_15_330
*1196 FILLER_0_15_334
*1197 FILLER_0_15_39
*1198 FILLER_0_15_51
*1199 FILLER_0_15_55
*1200 FILLER_0_15_57
*1201 FILLER_0_15_69
*1202 FILLER_0_15_81
*1203 FILLER_0_15_85
*1204 FILLER_0_15_90
*1205 FILLER_0_16_106
*1206 FILLER_0_16_141
*1207 FILLER_0_16_15
*1208 FILLER_0_16_164
*1209 FILLER_0_16_180
*1210 FILLER_0_16_194
*1211 FILLER_0_16_207
*1212 FILLER_0_16_222
*1213 FILLER_0_16_240
*1214 FILLER_0_16_250
*1215 FILLER_0_16_253
*1216 FILLER_0_16_269
*1217 FILLER_0_16_27
*1218 FILLER_0_16_285
*1219 FILLER_0_16_29
*1220 FILLER_0_16_299
*1221 FILLER_0_16_3
*1222 FILLER_0_16_309
*1223 FILLER_0_16_322
*1224 FILLER_0_16_334
*1225 FILLER_0_16_41
*1226 FILLER_0_16_53
*1227 FILLER_0_16_65
*1228 FILLER_0_16_77
*1229 FILLER_0_16_83
*1230 FILLER_0_16_85
*1231 FILLER_0_16_89
*1232 FILLER_0_17_108
*1233 FILLER_0_17_113
*1234 FILLER_0_17_117
*1235 FILLER_0_17_15
*1236 FILLER_0_17_159
*1237 FILLER_0_17_167
*1238 FILLER_0_17_172
*1239 FILLER_0_17_182
*1240 FILLER_0_17_198
*1241 FILLER_0_17_223
*1242 FILLER_0_17_225
*1243 FILLER_0_17_237
*1244 FILLER_0_17_254
*1245 FILLER_0_17_268
*1246 FILLER_0_17_27
*1247 FILLER_0_17_274
*1248 FILLER_0_17_298
*1249 FILLER_0_17_3
*1250 FILLER_0_17_306
*1251 FILLER_0_17_333
*1252 FILLER_0_17_39
*1253 FILLER_0_17_51
*1254 FILLER_0_17_55
*1255 FILLER_0_17_57
*1256 FILLER_0_17_69
*1257 FILLER_0_17_81
*1258 FILLER_0_17_98
*1259 FILLER_0_18_102
*1260 FILLER_0_18_114
*1261 FILLER_0_18_139
*1262 FILLER_0_18_15
*1263 FILLER_0_18_180
*1264 FILLER_0_18_195
*1265 FILLER_0_18_205
*1266 FILLER_0_18_217
*1267 FILLER_0_18_235
*1268 FILLER_0_18_253
*1269 FILLER_0_18_257
*1270 FILLER_0_18_269
*1271 FILLER_0_18_27
*1272 FILLER_0_18_277
*1273 FILLER_0_18_29
*1274 FILLER_0_18_291
*1275 FILLER_0_18_299
*1276 FILLER_0_18_3
*1277 FILLER_0_18_315
*1278 FILLER_0_18_327
*1279 FILLER_0_18_41
*1280 FILLER_0_18_53
*1281 FILLER_0_18_65
*1282 FILLER_0_18_77
*1283 FILLER_0_18_83
*1284 FILLER_0_18_85
*1285 FILLER_0_19_111
*1286 FILLER_0_19_120
*1287 FILLER_0_19_124
*1288 FILLER_0_19_141
*1289 FILLER_0_19_15
*1290 FILLER_0_19_150
*1291 FILLER_0_19_167
*1292 FILLER_0_19_193
*1293 FILLER_0_19_211
*1294 FILLER_0_19_223
*1295 FILLER_0_19_27
*1296 FILLER_0_19_276
*1297 FILLER_0_19_3
*1298 FILLER_0_19_304
*1299 FILLER_0_19_332
*1300 FILLER_0_19_39
*1301 FILLER_0_19_51
*1302 FILLER_0_19_55
*1303 FILLER_0_19_57
*1304 FILLER_0_19_69
*1305 FILLER_0_19_81
*1306 FILLER_0_19_93
*1307 FILLER_0_1_105
*1308 FILLER_0_1_111
*1309 FILLER_0_1_113
*1310 FILLER_0_1_125
*1311 FILLER_0_1_137
*1312 FILLER_0_1_149
*1313 FILLER_0_1_15
*1314 FILLER_0_1_161
*1315 FILLER_0_1_167
*1316 FILLER_0_1_169
*1317 FILLER_0_1_181
*1318 FILLER_0_1_193
*1319 FILLER_0_1_205
*1320 FILLER_0_1_217
*1321 FILLER_0_1_223
*1322 FILLER_0_1_225
*1323 FILLER_0_1_237
*1324 FILLER_0_1_249
*1325 FILLER_0_1_261
*1326 FILLER_0_1_27
*1327 FILLER_0_1_273
*1328 FILLER_0_1_279
*1329 FILLER_0_1_281
*1330 FILLER_0_1_293
*1331 FILLER_0_1_3
*1332 FILLER_0_1_305
*1333 FILLER_0_1_317
*1334 FILLER_0_1_329
*1335 FILLER_0_1_39
*1336 FILLER_0_1_51
*1337 FILLER_0_1_55
*1338 FILLER_0_1_57
*1339 FILLER_0_1_69
*1340 FILLER_0_1_81
*1341 FILLER_0_1_93
*1342 FILLER_0_20_11
*1343 FILLER_0_20_123
*1344 FILLER_0_20_165
*1345 FILLER_0_20_183
*1346 FILLER_0_20_191
*1347 FILLER_0_20_195
*1348 FILLER_0_20_238
*1349 FILLER_0_20_251
*1350 FILLER_0_20_269
*1351 FILLER_0_20_299
*1352 FILLER_0_20_3
*1353 FILLER_0_20_306
*1354 FILLER_0_20_329
*1355 FILLER_0_20_53
*1356 FILLER_0_20_65
*1357 FILLER_0_20_77
*1358 FILLER_0_20_83
*1359 FILLER_0_20_85
*1360 FILLER_0_20_91
*1361 FILLER_0_21_103
*1362 FILLER_0_21_113
*1363 FILLER_0_21_120
*1364 FILLER_0_21_15
*1365 FILLER_0_21_160
*1366 FILLER_0_21_169
*1367 FILLER_0_21_173
*1368 FILLER_0_21_198
*1369 FILLER_0_21_228
*1370 FILLER_0_21_255
*1371 FILLER_0_21_27
*1372 FILLER_0_21_278
*1373 FILLER_0_21_3
*1374 FILLER_0_21_314
*1375 FILLER_0_21_39
*1376 FILLER_0_21_54
*1377 FILLER_0_21_57
*1378 FILLER_0_21_67
*1379 FILLER_0_22_102
*1380 FILLER_0_22_116
*1381 FILLER_0_22_120
*1382 FILLER_0_22_128
*1383 FILLER_0_22_134
*1384 FILLER_0_22_147
*1385 FILLER_0_22_163
*1386 FILLER_0_22_171
*1387 FILLER_0_22_182
*1388 FILLER_0_22_190
*1389 FILLER_0_22_194
*1390 FILLER_0_22_237
*1391 FILLER_0_22_247
*1392 FILLER_0_22_251
*1393 FILLER_0_22_253
*1394 FILLER_0_22_29
*1395 FILLER_0_22_290
*1396 FILLER_0_22_3
*1397 FILLER_0_22_307
*1398 FILLER_0_22_326
*1399 FILLER_0_22_46
*1400 FILLER_0_22_73
*1401 FILLER_0_22_81
*1402 FILLER_0_22_85
*1403 FILLER_0_22_94
*1404 FILLER_0_23_110
*1405 FILLER_0_23_123
*1406 FILLER_0_23_127
*1407 FILLER_0_23_136
*1408 FILLER_0_23_144
*1409 FILLER_0_23_162
*1410 FILLER_0_23_223
*1411 FILLER_0_23_225
*1412 FILLER_0_23_258
*1413 FILLER_0_23_292
*1414 FILLER_0_23_3
*1415 FILLER_0_23_304
*1416 FILLER_0_23_40
*1417 FILLER_0_23_52
*1418 FILLER_0_23_7
*1419 FILLER_0_23_70
*1420 FILLER_0_23_87
*1421 FILLER_0_24_101
*1422 FILLER_0_24_109
*1423 FILLER_0_24_123
*1424 FILLER_0_24_132
*1425 FILLER_0_24_166
*1426 FILLER_0_24_191
*1427 FILLER_0_24_195
*1428 FILLER_0_24_197
*1429 FILLER_0_24_20
*1430 FILLER_0_24_208
*1431 FILLER_0_24_234
*1432 FILLER_0_24_238
*1433 FILLER_0_24_248
*1434 FILLER_0_24_261
*1435 FILLER_0_24_3
*1436 FILLER_0_24_309
*1437 FILLER_0_24_328
*1438 FILLER_0_24_334
*1439 FILLER_0_24_79
*1440 FILLER_0_24_83
*1441 FILLER_0_24_85
*1442 FILLER_0_24_93
*1443 FILLER_0_25_109
*1444 FILLER_0_25_116
*1445 FILLER_0_25_135
*1446 FILLER_0_25_159
*1447 FILLER_0_25_163
*1448 FILLER_0_25_167
*1449 FILLER_0_25_189
*1450 FILLER_0_25_193
*1451 FILLER_0_25_278
*1452 FILLER_0_25_3
*1453 FILLER_0_25_313
*1454 FILLER_0_25_42
*1455 FILLER_0_25_47
*1456 FILLER_0_25_55
*1457 FILLER_0_25_67
*1458 FILLER_0_25_74
*1459 FILLER_0_25_97
*1460 FILLER_0_26_106
*1461 FILLER_0_26_114
*1462 FILLER_0_26_122
*1463 FILLER_0_26_149
*1464 FILLER_0_26_155
*1465 FILLER_0_26_169
*1466 FILLER_0_26_183
*1467 FILLER_0_26_187
*1468 FILLER_0_26_191
*1469 FILLER_0_26_195
*1470 FILLER_0_26_206
*1471 FILLER_0_26_210
*1472 FILLER_0_26_23
*1473 FILLER_0_26_250
*1474 FILLER_0_26_253
*1475 FILLER_0_26_27
*1476 FILLER_0_26_287
*1477 FILLER_0_26_292
*1478 FILLER_0_26_3
*1479 FILLER_0_26_302
*1480 FILLER_0_26_333
*1481 FILLER_0_26_88
*1482 FILLER_0_27_104
*1483 FILLER_0_27_113
*1484 FILLER_0_27_122
*1485 FILLER_0_27_130
*1486 FILLER_0_27_162
*1487 FILLER_0_27_175
*1488 FILLER_0_27_181
*1489 FILLER_0_27_202
*1490 FILLER_0_27_222
*1491 FILLER_0_27_260
*1492 FILLER_0_27_276
*1493 FILLER_0_27_292
*1494 FILLER_0_27_30
*1495 FILLER_0_27_323
*1496 FILLER_0_27_332
*1497 FILLER_0_27_36
*1498 FILLER_0_27_42
*1499 FILLER_0_27_53
*1500 FILLER_0_27_66
*1501 FILLER_0_27_88
*1502 FILLER_0_28_100
*1503 FILLER_0_28_11
*1504 FILLER_0_28_111
*1505 FILLER_0_28_121
*1506 FILLER_0_28_138
*1507 FILLER_0_28_189
*1508 FILLER_0_28_195
*1509 FILLER_0_28_197
*1510 FILLER_0_28_225
*1511 FILLER_0_28_233
*1512 FILLER_0_28_250
*1513 FILLER_0_28_269
*1514 FILLER_0_28_297
*1515 FILLER_0_28_3
*1516 FILLER_0_28_329
*1517 FILLER_0_28_81
*1518 FILLER_0_29_113
*1519 FILLER_0_29_15
*1520 FILLER_0_29_151
*1521 FILLER_0_29_177
*1522 FILLER_0_29_201
*1523 FILLER_0_29_217
*1524 FILLER_0_29_247
*1525 FILLER_0_29_253
*1526 FILLER_0_29_257
*1527 FILLER_0_29_276
*1528 FILLER_0_29_284
*1529 FILLER_0_29_3
*1530 FILLER_0_29_316
*1531 FILLER_0_29_325
*1532 FILLER_0_29_334
*1533 FILLER_0_29_35
*1534 FILLER_0_29_54
*1535 FILLER_0_29_57
*1536 FILLER_0_29_87
*1537 FILLER_0_2_109
*1538 FILLER_0_2_121
*1539 FILLER_0_2_133
*1540 FILLER_0_2_139
*1541 FILLER_0_2_141
*1542 FILLER_0_2_15
*1543 FILLER_0_2_153
*1544 FILLER_0_2_165
*1545 FILLER_0_2_177
*1546 FILLER_0_2_189
*1547 FILLER_0_2_195
*1548 FILLER_0_2_197
*1549 FILLER_0_2_209
*1550 FILLER_0_2_221
*1551 FILLER_0_2_233
*1552 FILLER_0_2_245
*1553 FILLER_0_2_251
*1554 FILLER_0_2_253
*1555 FILLER_0_2_265
*1556 FILLER_0_2_27
*1557 FILLER_0_2_277
*1558 FILLER_0_2_289
*1559 FILLER_0_2_29
*1560 FILLER_0_2_3
*1561 FILLER_0_2_301
*1562 FILLER_0_2_307
*1563 FILLER_0_2_309
*1564 FILLER_0_2_321
*1565 FILLER_0_2_333
*1566 FILLER_0_2_41
*1567 FILLER_0_2_53
*1568 FILLER_0_2_65
*1569 FILLER_0_2_77
*1570 FILLER_0_2_83
*1571 FILLER_0_2_85
*1572 FILLER_0_2_97
*1573 FILLER_0_30_116
*1574 FILLER_0_30_139
*1575 FILLER_0_30_15
*1576 FILLER_0_30_164
*1577 FILLER_0_30_192
*1578 FILLER_0_30_214
*1579 FILLER_0_30_227
*1580 FILLER_0_30_235
*1581 FILLER_0_30_250
*1582 FILLER_0_30_264
*1583 FILLER_0_30_27
*1584 FILLER_0_30_293
*1585 FILLER_0_30_3
*1586 FILLER_0_30_53
*1587 FILLER_0_30_62
*1588 FILLER_0_30_80
*1589 FILLER_0_30_96
*1590 FILLER_0_31_104
*1591 FILLER_0_31_129
*1592 FILLER_0_31_157
*1593 FILLER_0_31_161
*1594 FILLER_0_31_165
*1595 FILLER_0_31_169
*1596 FILLER_0_31_182
*1597 FILLER_0_31_225
*1598 FILLER_0_31_232
*1599 FILLER_0_31_248
*1600 FILLER_0_31_257
*1601 FILLER_0_31_278
*1602 FILLER_0_31_281
*1603 FILLER_0_31_3
*1604 FILLER_0_31_30
*1605 FILLER_0_31_34
*1606 FILLER_0_31_49
*1607 FILLER_0_31_68
*1608 FILLER_0_31_7
*1609 FILLER_0_31_93
*1610 FILLER_0_31_99
*1611 FILLER_0_32_101
*1612 FILLER_0_32_11
*1613 FILLER_0_32_110
*1614 FILLER_0_32_138
*1615 FILLER_0_32_149
*1616 FILLER_0_32_153
*1617 FILLER_0_32_174
*1618 FILLER_0_32_197
*1619 FILLER_0_32_211
*1620 FILLER_0_32_233
*1621 FILLER_0_32_249
*1622 FILLER_0_32_257
*1623 FILLER_0_32_266
*1624 FILLER_0_32_278
*1625 FILLER_0_32_291
*1626 FILLER_0_32_3
*1627 FILLER_0_32_309
*1628 FILLER_0_32_56
*1629 FILLER_0_32_70
*1630 FILLER_0_32_77
*1631 FILLER_0_33_111
*1632 FILLER_0_33_118
*1633 FILLER_0_33_127
*1634 FILLER_0_33_145
*1635 FILLER_0_33_153
*1636 FILLER_0_33_169
*1637 FILLER_0_33_183
*1638 FILLER_0_33_209
*1639 FILLER_0_33_223
*1640 FILLER_0_33_225
*1641 FILLER_0_33_263
*1642 FILLER_0_33_268
*1643 FILLER_0_33_281
*1644 FILLER_0_33_289
*1645 FILLER_0_33_294
*1646 FILLER_0_33_3
*1647 FILLER_0_33_31
*1648 FILLER_0_33_60
*1649 FILLER_0_33_78
*1650 FILLER_0_33_91
*1651 FILLER_0_33_97
*1652 FILLER_0_34_107
*1653 FILLER_0_34_113
*1654 FILLER_0_34_126
*1655 FILLER_0_34_139
*1656 FILLER_0_34_141
*1657 FILLER_0_34_15
*1658 FILLER_0_34_153
*1659 FILLER_0_34_179
*1660 FILLER_0_34_183
*1661 FILLER_0_34_195
*1662 FILLER_0_34_197
*1663 FILLER_0_34_234
*1664 FILLER_0_34_240
*1665 FILLER_0_34_267
*1666 FILLER_0_34_27
*1667 FILLER_0_34_275
*1668 FILLER_0_34_280
*1669 FILLER_0_34_284
*1670 FILLER_0_34_29
*1671 FILLER_0_34_3
*1672 FILLER_0_34_307
*1673 FILLER_0_34_309
*1674 FILLER_0_34_331
*1675 FILLER_0_34_46
*1676 FILLER_0_34_57
*1677 FILLER_0_34_85
*1678 FILLER_0_34_95
*1679 FILLER_0_34_99
*1680 FILLER_0_35_102
*1681 FILLER_0_35_111
*1682 FILLER_0_35_113
*1683 FILLER_0_35_139
*1684 FILLER_0_35_15
*1685 FILLER_0_35_151
*1686 FILLER_0_35_164
*1687 FILLER_0_35_204
*1688 FILLER_0_35_215
*1689 FILLER_0_35_222
*1690 FILLER_0_35_225
*1691 FILLER_0_35_27
*1692 FILLER_0_35_278
*1693 FILLER_0_35_290
*1694 FILLER_0_35_3
*1695 FILLER_0_35_310
*1696 FILLER_0_35_35
*1697 FILLER_0_35_41
*1698 FILLER_0_35_53
*1699 FILLER_0_35_73
*1700 FILLER_0_35_82
*1701 FILLER_0_36_102
*1702 FILLER_0_36_129
*1703 FILLER_0_36_137
*1704 FILLER_0_36_141
*1705 FILLER_0_36_15
*1706 FILLER_0_36_153
*1707 FILLER_0_36_165
*1708 FILLER_0_36_174
*1709 FILLER_0_36_184
*1710 FILLER_0_36_204
*1711 FILLER_0_36_235
*1712 FILLER_0_36_250
*1713 FILLER_0_36_253
*1714 FILLER_0_36_257
*1715 FILLER_0_36_265
*1716 FILLER_0_36_27
*1717 FILLER_0_36_276
*1718 FILLER_0_36_282
*1719 FILLER_0_36_286
*1720 FILLER_0_36_29
*1721 FILLER_0_36_298
*1722 FILLER_0_36_3
*1723 FILLER_0_36_306
*1724 FILLER_0_36_324
*1725 FILLER_0_36_333
*1726 FILLER_0_36_41
*1727 FILLER_0_36_53
*1728 FILLER_0_36_69
*1729 FILLER_0_36_81
*1730 FILLER_0_36_85
*1731 FILLER_0_36_94
*1732 FILLER_0_37_105
*1733 FILLER_0_37_111
*1734 FILLER_0_37_117
*1735 FILLER_0_37_129
*1736 FILLER_0_37_141
*1737 FILLER_0_37_15
*1738 FILLER_0_37_153
*1739 FILLER_0_37_165