*SPEF "ieee 1481-1999"
*DESIGN "tt_um_lfsr"
*DATE "14:13:09 Tuesday May 28, 2024"
*VENDOR "The OpenROAD Project"
*PROGRAM "OpenROAD"
*VERSION "da0053d7b0014ab9c87ea148875ff6c2a0f9b658"
*DESIGN_FLOW "NAME_SCOPE LOCAL" "PIN_CAP NONE"
*DIVIDER /
*DELIMITER :
*BUS_DELIMITER []
*T_UNIT 1 NS
*C_UNIT 1 PF
*R_UNIT 1 OHM
*L_UNIT 1 HENRY

*NAME_MAP
*3 clk
*4 ena
*5 rst_n
*6 ui_in[0]
*7 ui_in[1]
*8 ui_in[2]
*9 ui_in[3]
*10 ui_in[4]
*11 ui_in[5]
*12 ui_in[6]
*13 ui_in[7]
*14 uio_in[0]
*15 uio_in[1]
*16 uio_in[2]
*17 uio_in[3]
*18 uio_in[4]
*19 uio_in[5]
*20 uio_in[6]
*21 uio_in[7]
*22 net30
*23 net31
*24 net32
*25 net33
*26 net34
*27 net35
*28 net36
*29 net37
*30 net22
*31 net23
*32 net24
*33 net25
*34 net26
*35 net27
*36 net28
*37 net29
*38 net16
*39 uo_out[1]
*40 uo_out[2]
*41 net17
*42 net18
*43 net19
*44 net20
*45 net21
*46 _000_
*47 _001_
*48 _002_
*49 _003_
*50 _004_
*51 _005_
*52 _006_
*53 _007_
*54 _008_
*55 _009_
*56 _010_
*57 _011_
*58 _012_
*59 _013_
*60 _014_
*61 _015_
*62 _016_
*63 _017_
*64 _018_
*65 _019_
*66 _020_
*67 _021_
*68 _022_
*69 _023_
*70 _024_
*71 _025_
*72 _026_
*73 _027_
*74 _028_
*75 _029_
*76 _030_
*77 _031_
*78 _032_
*79 _033_
*80 _034_
*81 _035_
*82 _036_
*83 _037_
*84 _038_
*85 _039_
*86 _040_
*87 _041_
*88 _042_
*89 _043_
*90 _044_
*91 _045_
*92 _046_
*93 _047_
*94 _048_
*95 _049_
*96 _050_
*97 _051_
*98 _052_
*99 _053_
*100 _054_
*101 _055_
*102 _056_
*103 _057_
*104 _058_
*105 _059_
*106 _060_
*107 _061_
*108 _062_
*109 _063_
*110 _064_
*111 _065_
*112 _066_
*113 _067_
*114 _068_
*115 _069_
*116 _070_
*117 _071_
*118 _072_
*119 _073_
*120 _074_
*121 _075_
*122 _076_
*123 _077_
*124 _078_
*125 _079_
*126 _080_
*127 _081_
*128 _082_
*129 _083_
*130 _084_
*131 _085_
*132 _086_
*133 _087_
*134 _088_
*135 _089_
*136 _090_
*137 _091_
*138 _092_
*139 _093_
*140 _094_
*141 _095_
*142 _096_
*143 _097_
*144 _098_
*145 _099_
*146 _100_
*147 _101_
*148 _102_
*149 _103_
*150 _104_
*151 _105_
*152 _106_
*153 _107_
*154 _108_
*155 _109_
*156 _110_
*157 _111_
*158 _112_
*159 _113_
*160 _114_
*161 _115_
*162 _116_
*163 _117_
*164 _118_
*165 _119_
*166 _120_
*167 _121_
*168 _122_
*169 _123_
*170 _124_
*171 _125_
*172 _126_
*173 _127_
*174 _128_
*175 _129_
*176 _130_
*177 _131_
*178 _132_
*179 _133_
*180 _134_
*181 clknet_0_clk
*182 clknet_3_0__leaf_clk
*183 clknet_3_1__leaf_clk
*184 clknet_3_2__leaf_clk
*185 clknet_3_3__leaf_clk
*186 clknet_3_4__leaf_clk
*187 clknet_3_5__leaf_clk
*188 clknet_3_6__leaf_clk
*189 clknet_3_7__leaf_clk
*190 net1
*191 net10
*192 net100
*193 net101
*194 net102
*195 net11
*196 net12
*197 net13
*198 net14
*199 net15
*200 net2
*201 net3
*202 net38
*203 net39
*204 net4
*205 net40
*206 net41
*207 net42
*208 net43
*209 net44
*210 net45
*211 net46
*212 net47
*213 net48
*214 net49
*215 net5
*216 net50
*217 net51
*218 net52
*219 net53
*220 net54
*221 net55
*222 net56
*223 net57
*224 net58
*225 net59
*226 net6
*227 net60
*228 net61
*229 net62
*230 net63
*231 net64
*232 net65
*233 net66
*234 net67
*235 net68
*236 net69
*237 net7
*238 net70
*239 net71
*240 net72
*241 net73
*242 net74
*243 net75
*244 net76
*245 net77
*246 net78
*247 net79
*248 net8
*249 net80
*250 net81
*251 net82
*252 net83
*253 net84
*254 net85
*255 net86
*256 net87
*257 net88
*258 net89
*259 net9
*260 net90
*261 net91
*262 net92
*263 net93
*264 net94
*265 net95
*266 net96
*267 net97
*268 net98
*269 net99
*270 wb_lfsr\.FLSR_instance\.flip_flop_instance\[0\]\.in
*271 wb_lfsr\.FLSR_instance\.flip_flop_instance\[0\]\.out
*272 wb_lfsr\.FLSR_instance\.flip_flop_instance\[0\]\.reset
*273 wb_lfsr\.FLSR_instance\.flip_flop_instance\[10\]\.in
*274 wb_lfsr\.FLSR_instance\.flip_flop_instance\[10\]\.out
*275 wb_lfsr\.FLSR_instance\.flip_flop_instance\[11\]\.in
*276 wb_lfsr\.FLSR_instance\.flip_flop_instance\[11\]\.out
*277 wb_lfsr\.FLSR_instance\.flip_flop_instance\[12\]\.in
*278 wb_lfsr\.FLSR_instance\.flip_flop_instance\[12\]\.out
*279 wb_lfsr\.FLSR_instance\.flip_flop_instance\[13\]\.in
*280 wb_lfsr\.FLSR_instance\.flip_flop_instance\[13\]\.out
*281 wb_lfsr\.FLSR_instance\.flip_flop_instance\[14\]\.in
*282 wb_lfsr\.FLSR_instance\.flip_flop_instance\[14\]\.out
*283 wb_lfsr\.FLSR_instance\.flip_flop_instance\[15\]\.in
*284 wb_lfsr\.FLSR_instance\.flip_flop_instance\[15\]\.out
*285 wb_lfsr\.FLSR_instance\.flip_flop_instance\[16\]\.in
*286 wb_lfsr\.FLSR_instance\.flip_flop_instance\[16\]\.out
*287 wb_lfsr\.FLSR_instance\.flip_flop_instance\[17\]\.in
*288 wb_lfsr\.FLSR_instance\.flip_flop_instance\[17\]\.out
*289 wb_lfsr\.FLSR_instance\.flip_flop_instance\[18\]\.in
*290 wb_lfsr\.FLSR_instance\.flip_flop_instance\[18\]\.out
*291 wb_lfsr\.FLSR_instance\.flip_flop_instance\[19\]\.in
*292 wb_lfsr\.FLSR_instance\.flip_flop_instance\[19\]\.out
*293 wb_lfsr\.FLSR_instance\.flip_flop_instance\[1\]\.in
*294 wb_lfsr\.FLSR_instance\.flip_flop_instance\[1\]\.out
*295 wb_lfsr\.FLSR_instance\.flip_flop_instance\[20\]\.in
*296 wb_lfsr\.FLSR_instance\.flip_flop_instance\[20\]\.out
*297 wb_lfsr\.FLSR_instance\.flip_flop_instance\[21\]\.in
*298 wb_lfsr\.FLSR_instance\.flip_flop_instance\[21\]\.out
*299 wb_lfsr\.FLSR_instance\.flip_flop_instance\[22\]\.in
*300 wb_lfsr\.FLSR_instance\.flip_flop_instance\[22\]\.out
*301 wb_lfsr\.FLSR_instance\.flip_flop_instance\[23\]\.in
*302 wb_lfsr\.FLSR_instance\.flip_flop_instance\[23\]\.out
*303 wb_lfsr\.FLSR_instance\.flip_flop_instance\[24\]\.in
*304 wb_lfsr\.FLSR_instance\.flip_flop_instance\[24\]\.out
*305 wb_lfsr\.FLSR_instance\.flip_flop_instance\[25\]\.in
*306 wb_lfsr\.FLSR_instance\.flip_flop_instance\[25\]\.out
*307 wb_lfsr\.FLSR_instance\.flip_flop_instance\[26\]\.in
*308 wb_lfsr\.FLSR_instance\.flip_flop_instance\[26\]\.out
*309 wb_lfsr\.FLSR_instance\.flip_flop_instance\[27\]\.in
*310 wb_lfsr\.FLSR_instance\.flip_flop_instance\[27\]\.out
*311 wb_lfsr\.FLSR_instance\.flip_flop_instance\[28\]\.in
*312 wb_lfsr\.FLSR_instance\.flip_flop_instance\[28\]\.out
*313 wb_lfsr\.FLSR_instance\.flip_flop_instance\[29\]\.in
*314 wb_lfsr\.FLSR_instance\.flip_flop_instance\[29\]\.out
*315 wb_lfsr\.FLSR_instance\.flip_flop_instance\[2\]\.in
*316 wb_lfsr\.FLSR_instance\.flip_flop_instance\[2\]\.out
*317 wb_lfsr\.FLSR_instance\.flip_flop_instance\[30\]\.in
*318 wb_lfsr\.FLSR_instance\.flip_flop_instance\[30\]\.out
*319 wb_lfsr\.FLSR_instance\.flip_flop_instance\[31\]\.in
*320 wb_lfsr\.FLSR_instance\.flip_flop_instance\[31\]\.out
*321 wb_lfsr\.FLSR_instance\.flip_flop_instance\[3\]\.in
*322 wb_lfsr\.FLSR_instance\.flip_flop_instance\[3\]\.out
*323 wb_lfsr\.FLSR_instance\.flip_flop_instance\[4\]\.in
*324 wb_lfsr\.FLSR_instance\.flip_flop_instance\[4\]\.out
*325 wb_lfsr\.FLSR_instance\.flip_flop_instance\[5\]\.in
*326 wb_lfsr\.FLSR_instance\.flip_flop_instance\[5\]\.out
*327 wb_lfsr\.FLSR_instance\.flip_flop_instance\[6\]\.in
*328 wb_lfsr\.FLSR_instance\.flip_flop_instance\[6\]\.out
*329 wb_lfsr\.FLSR_instance\.flip_flop_instance\[7\]\.in
*330 wb_lfsr\.FLSR_instance\.flip_flop_instance\[7\]\.out
*331 wb_lfsr\.FLSR_instance\.flip_flop_instance\[8\]\.in
*332 wb_lfsr\.FLSR_instance\.flip_flop_instance\[8\]\.out
*333 wb_lfsr\.FLSR_instance\.flip_flop_instance\[9\]\.in
*334 wb_lfsr\.FLSR_instance\.flip_flop_instance\[9\]\.out
*335 wb_lfsr\.FLSR_instance\.load_seed
*336 wb_lfsr\.FLSR_instance\.muxes\[0\]\.input_a
*337 wb_lfsr\.FLSR_instance\.muxes\[10\]\.input_a
*338 wb_lfsr\.FLSR_instance\.muxes\[11\]\.input_a
*339 wb_lfsr\.FLSR_instance\.muxes\[12\]\.input_a
*340 wb_lfsr\.FLSR_instance\.muxes\[13\]\.input_a
*341 wb_lfsr\.FLSR_instance\.muxes\[14\]\.input_a
*342 wb_lfsr\.FLSR_instance\.muxes\[15\]\.input_a
*343 wb_lfsr\.FLSR_instance\.muxes\[16\]\.input_a
*344 wb_lfsr\.FLSR_instance\.muxes\[17\]\.input_a
*345 wb_lfsr\.FLSR_instance\.muxes\[18\]\.input_a
*346 wb_lfsr\.FLSR_instance\.muxes\[19\]\.input_a
*347 wb_lfsr\.FLSR_instance\.muxes\[1\]\.input_a
*348 wb_lfsr\.FLSR_instance\.muxes\[20\]\.input_a
*349 wb_lfsr\.FLSR_instance\.muxes\[21\]\.input_a
*350 wb_lfsr\.FLSR_instance\.muxes\[22\]\.input_a
*351 wb_lfsr\.FLSR_instance\.muxes\[23\]\.input_a
*352 wb_lfsr\.FLSR_instance\.muxes\[24\]\.input_a
*353 wb_lfsr\.FLSR_instance\.muxes\[25\]\.input_a
*354 wb_lfsr\.FLSR_instance\.muxes\[26\]\.input_a
*355 wb_lfsr\.FLSR_instance\.muxes\[27\]\.input_a
*356 wb_lfsr\.FLSR_instance\.muxes\[28\]\.input_a
*357 wb_lfsr\.FLSR_instance\.muxes\[29\]\.input_a
*358 wb_lfsr\.FLSR_instance\.muxes\[2\]\.input_a
*359 wb_lfsr\.FLSR_instance\.muxes\[30\]\.input_a
*360 wb_lfsr\.FLSR_instance\.muxes\[31\]\.input_a
*361 wb_lfsr\.FLSR_instance\.muxes\[3\]\.input_a
*362 wb_lfsr\.FLSR_instance\.muxes\[4\]\.input_a
*363 wb_lfsr\.FLSR_instance\.muxes\[5\]\.input_a
*364 wb_lfsr\.FLSR_instance\.muxes\[6\]\.input_a
*365 wb_lfsr\.FLSR_instance\.muxes\[7\]\.input_a
*366 wb_lfsr\.FLSR_instance\.muxes\[8\]\.input_a
*367 wb_lfsr\.FLSR_instance\.muxes\[9\]\.input_a
*368 wb_lfsr\.o_wb_ack
*369 wb_lfsr\.o_wb_data
*370 FILLER_0_0_109
*371 FILLER_0_0_113
*372 FILLER_0_0_125
*373 FILLER_0_0_137
*374 FILLER_0_0_141
*375 FILLER_0_0_15
*376 FILLER_0_0_153
*377 FILLER_0_0_165
*378 FILLER_0_0_169
*379 FILLER_0_0_181
*380 FILLER_0_0_193
*381 FILLER_0_0_197
*382 FILLER_0_0_209
*383 FILLER_0_0_221
*384 FILLER_0_0_225
*385 FILLER_0_0_237
*386 FILLER_0_0_249
*387 FILLER_0_0_253
*388 FILLER_0_0_265
*389 FILLER_0_0_27
*390 FILLER_0_0_277
*391 FILLER_0_0_281
*392 FILLER_0_0_29
*393 FILLER_0_0_293
*394 FILLER_0_0_3
*395 FILLER_0_0_305
*396 FILLER_0_0_309
*397 FILLER_0_0_321
*398 FILLER_0_0_333
*399 FILLER_0_0_41
*400 FILLER_0_0_53
*401 FILLER_0_0_57
*402 FILLER_0_0_69
*403 FILLER_0_0_81
*404 FILLER_0_0_85
*405 FILLER_0_0_97
*406 FILLER_0_10_109
*407 FILLER_0_10_121
*408 FILLER_0_10_133
*409 FILLER_0_10_139
*410 FILLER_0_10_141
*411 FILLER_0_10_15
*412 FILLER_0_10_153
*413 FILLER_0_10_165
*414 FILLER_0_10_177
*415 FILLER_0_10_189
*416 FILLER_0_10_195
*417 FILLER_0_10_197
*418 FILLER_0_10_209
*419 FILLER_0_10_221
*420 FILLER_0_10_233
*421 FILLER_0_10_245
*422 FILLER_0_10_251
*423 FILLER_0_10_253
*424 FILLER_0_10_265
*425 FILLER_0_10_27
*426 FILLER_0_10_277
*427 FILLER_0_10_289
*428 FILLER_0_10_29
*429 FILLER_0_10_3
*430 FILLER_0_10_301
*431 FILLER_0_10_307
*432 FILLER_0_10_309
*433 FILLER_0_10_321
*434 FILLER_0_10_333
*435 FILLER_0_10_41
*436 FILLER_0_10_53
*437 FILLER_0_10_65
*438 FILLER_0_10_77
*439 FILLER_0_10_83
*440 FILLER_0_10_85
*441 FILLER_0_10_97
*442 FILLER_0_11_105
*443 FILLER_0_11_111
*444 FILLER_0_11_113
*445 FILLER_0_11_125
*446 FILLER_0_11_137
*447 FILLER_0_11_149
*448 FILLER_0_11_15
*449 FILLER_0_11_161
*450 FILLER_0_11_167
*451 FILLER_0_11_169
*452 FILLER_0_11_181
*453 FILLER_0_11_193
*454 FILLER_0_11_205
*455 FILLER_0_11_217
*456 FILLER_0_11_223
*457 FILLER_0_11_225
*458 FILLER_0_11_237
*459 FILLER_0_11_249
*460 FILLER_0_11_261
*461 FILLER_0_11_27
*462 FILLER_0_11_273
*463 FILLER_0_11_279
*464 FILLER_0_11_281
*465 FILLER_0_11_293
*466 FILLER_0_11_3
*467 FILLER_0_11_305
*468 FILLER_0_11_317
*469 FILLER_0_11_329
*470 FILLER_0_11_39
*471 FILLER_0_11_51
*472 FILLER_0_11_55
*473 FILLER_0_11_57
*474 FILLER_0_11_69
*475 FILLER_0_11_81
*476 FILLER_0_11_93
*477 FILLER_0_12_109
*478 FILLER_0_12_121
*479 FILLER_0_12_133
*480 FILLER_0_12_139
*481 FILLER_0_12_141
*482 FILLER_0_12_15
*483 FILLER_0_12_153
*484 FILLER_0_12_165
*485 FILLER_0_12_177
*486 FILLER_0_12_189
*487 FILLER_0_12_195
*488 FILLER_0_12_197
*489 FILLER_0_12_209
*490 FILLER_0_12_221
*491 FILLER_0_12_233
*492 FILLER_0_12_245
*493 FILLER_0_12_251
*494 FILLER_0_12_253
*495 FILLER_0_12_265
*496 FILLER_0_12_27
*497 FILLER_0_12_277
*498 FILLER_0_12_289
*499 FILLER_0_12_29
*500 FILLER_0_12_3
*501 FILLER_0_12_301
*502 FILLER_0_12_307
*503 FILLER_0_12_309
*504 FILLER_0_12_321
*505 FILLER_0_12_333
*506 FILLER_0_12_41
*507 FILLER_0_12_53
*508 FILLER_0_12_65
*509 FILLER_0_12_77
*510 FILLER_0_12_83
*511 FILLER_0_12_85
*512 FILLER_0_12_97
*513 FILLER_0_13_105
*514 FILLER_0_13_111
*515 FILLER_0_13_113
*516 FILLER_0_13_125
*517 FILLER_0_13_137
*518 FILLER_0_13_149
*519 FILLER_0_13_15
*520 FILLER_0_13_161
*521 FILLER_0_13_167
*522 FILLER_0_13_169
*523 FILLER_0_13_181
*524 FILLER_0_13_193
*525 FILLER_0_13_205
*526 FILLER_0_13_217
*527 FILLER_0_13_223
*528 FILLER_0_13_225
*529 FILLER_0_13_237
*530 FILLER_0_13_249
*531 FILLER_0_13_261
*532 FILLER_0_13_27
*533 FILLER_0_13_273
*534 FILLER_0_13_279
*535 FILLER_0_13_281
*536 FILLER_0_13_293
*537 FILLER_0_13_3
*538 FILLER_0_13_305
*539 FILLER_0_13_317
*540 FILLER_0_13_329
*541 FILLER_0_13_39
*542 FILLER_0_13_51
*543 FILLER_0_13_55
*544 FILLER_0_13_57
*545 FILLER_0_13_69
*546 FILLER_0_13_81
*547 FILLER_0_13_93
*548 FILLER_0_14_109
*549 FILLER_0_14_121
*550 FILLER_0_14_133
*551 FILLER_0_14_139
*552 FILLER_0_14_141
*553 FILLER_0_14_15
*554 FILLER_0_14_153
*555 FILLER_0_14_165
*556 FILLER_0_14_177
*557 FILLER_0_14_189
*558 FILLER_0_14_195
*559 FILLER_0_14_197
*560 FILLER_0_14_209
*561 FILLER_0_14_221
*562 FILLER_0_14_233
*563 FILLER_0_14_245
*564 FILLER_0_14_251
*565 FILLER_0_14_253
*566 FILLER_0_14_265
*567 FILLER_0_14_27
*568 FILLER_0_14_277
*569 FILLER_0_14_289
*570 FILLER_0_14_29
*571 FILLER_0_14_3
*572 FILLER_0_14_301
*573 FILLER_0_14_307
*574 FILLER_0_14_309
*575 FILLER_0_14_321
*576 FILLER_0_14_333
*577 FILLER_0_14_41
*578 FILLER_0_14_53
*579 FILLER_0_14_65
*580 FILLER_0_14_77
*581 FILLER_0_14_83
*582 FILLER_0_14_85
*583 FILLER_0_14_97
*584 FILLER_0_15_105
*585 FILLER_0_15_111
*586 FILLER_0_15_113
*587 FILLER_0_15_125
*588 FILLER_0_15_137
*589 FILLER_0_15_149
*590 FILLER_0_15_15
*591 FILLER_0_15_161
*592 FILLER_0_15_167
*593 FILLER_0_15_169
*594 FILLER_0_15_181
*595 FILLER_0_15_193
*596 FILLER_0_15_205
*597 FILLER_0_15_217
*598 FILLER_0_15_223
*599 FILLER_0_15_225
*600 FILLER_0_15_237
*601 FILLER_0_15_249
*602 FILLER_0_15_261
*603 FILLER_0_15_27
*604 FILLER_0_15_273
*605 FILLER_0_15_279
*606 FILLER_0_15_281
*607 FILLER_0_15_293
*608 FILLER_0_15_3
*609 FILLER_0_15_305
*610 FILLER_0_15_317
*611 FILLER_0_15_329
*612 FILLER_0_15_39
*613 FILLER_0_15_51
*614 FILLER_0_15_55
*615 FILLER_0_15_57
*616 FILLER_0_15_69
*617 FILLER_0_15_81
*618 FILLER_0_15_93
*619 FILLER_0_16_109
*620 FILLER_0_16_121
*621 FILLER_0_16_133
*622 FILLER_0_16_139
*623 FILLER_0_16_141
*624 FILLER_0_16_15
*625 FILLER_0_16_153
*626 FILLER_0_16_165
*627 FILLER_0_16_177
*628 FILLER_0_16_189
*629 FILLER_0_16_195
*630 FILLER_0_16_197
*631 FILLER_0_16_209
*632 FILLER_0_16_221
*633 FILLER_0_16_233
*634 FILLER_0_16_245
*635 FILLER_0_16_251
*636 FILLER_0_16_253
*637 FILLER_0_16_265
*638 FILLER_0_16_27
*639 FILLER_0_16_277
*640 FILLER_0_16_289
*641 FILLER_0_16_29
*642 FILLER_0_16_3
*643 FILLER_0_16_301
*644 FILLER_0_16_307
*645 FILLER_0_16_309
*646 FILLER_0_16_321
*647 FILLER_0_16_333
*648 FILLER_0_16_41
*649 FILLER_0_16_53
*650 FILLER_0_16_65
*651 FILLER_0_16_77
*652 FILLER_0_16_83
*653 FILLER_0_16_85
*654 FILLER_0_16_97
*655 FILLER_0_17_105
*656 FILLER_0_17_111
*657 FILLER_0_17_113
*658 FILLER_0_17_125
*659 FILLER_0_17_137
*660 FILLER_0_17_149
*661 FILLER_0_17_15
*662 FILLER_0_17_161
*663 FILLER_0_17_167
*664 FILLER_0_17_169
*665 FILLER_0_17_181
*666 FILLER_0_17_193
*667 FILLER_0_17_205
*668 FILLER_0_17_217
*669 FILLER_0_17_223
*670 FILLER_0_17_225
*671 FILLER_0_17_237
*672 FILLER_0_17_249
*673 FILLER_0_17_261
*674 FILLER_0_17_27
*675 FILLER_0_17_273
*676 FILLER_0_17_279
*677 FILLER_0_17_281
*678 FILLER_0_17_293
*679 FILLER_0_17_3
*680 FILLER_0_17_305
*681 FILLER_0_17_317
*682 FILLER_0_17_329
*683 FILLER_0_17_39
*684 FILLER_0_17_51
*685 FILLER_0_17_55
*686 FILLER_0_17_57
*687 FILLER_0_17_69
*688 FILLER_0_17_81
*689 FILLER_0_17_93
*690 FILLER_0_18_109
*691 FILLER_0_18_121
*692 FILLER_0_18_133
*693 FILLER_0_18_139
*694 FILLER_0_18_141
*695 FILLER_0_18_15
*696 FILLER_0_18_153
*697 FILLER_0_18_165
*698 FILLER_0_18_177
*699 FILLER_0_18_189
*700 FILLER_0_18_195
*701 FILLER_0_18_197
*702 FILLER_0_18_209
*703 FILLER_0_18_221
*704 FILLER_0_18_233
*705 FILLER_0_18_245
*706 FILLER_0_18_251
*707 FILLER_0_18_253
*708 FILLER_0_18_265
*709 FILLER_0_18_27
*710 FILLER_0_18_277
*711 FILLER_0_18_289
*712 FILLER_0_18_29
*713 FILLER_0_18_3
*714 FILLER_0_18_301
*715 FILLER_0_18_307
*716 FILLER_0_18_309
*717 FILLER_0_18_321
*718 FILLER_0_18_333
*719 FILLER_0_18_41
*720 FILLER_0_18_53
*721 FILLER_0_18_65
*722 FILLER_0_18_77
*723 FILLER_0_18_83
*724 FILLER_0_18_85
*725 FILLER_0_18_97
*726 FILLER_0_19_105
*727 FILLER_0_19_111
*728 FILLER_0_19_113
*729 FILLER_0_19_125
*730 FILLER_0_19_137
*731 FILLER_0_19_149
*732 FILLER_0_19_15
*733 FILLER_0_19_161
*734 FILLER_0_19_167
*735 FILLER_0_19_169
*736 FILLER_0_19_181
*737 FILLER_0_19_193
*738 FILLER_0_19_205
*739 FILLER_0_19_217
*740 FILLER_0_19_223
*741 FILLER_0_19_225
*742 FILLER_0_19_237
*743 FILLER_0_19_249
*744 FILLER_0_19_261
*745 FILLER_0_19_27
*746 FILLER_0_19_273
*747 FILLER_0_19_279
*748 FILLER_0_19_281
*749 FILLER_0_19_293
*750 FILLER_0_19_3
*751 FILLER_0_19_305
*752 FILLER_0_19_317
*753 FILLER_0_19_329
*754 FILLER_0_19_39
*755 FILLER_0_19_51
*756 FILLER_0_19_55
*757 FILLER_0_19_57
*758 FILLER_0_19_69
*759 FILLER_0_19_81
*760 FILLER_0_19_93
*761 FILLER_0_1_105
*762 FILLER_0_1_111
*763 FILLER_0_1_113
*764 FILLER_0_1_125
*765 FILLER_0_1_137
*766 FILLER_0_1_149
*767 FILLER_0_1_15
*768 FILLER_0_1_161
*769 FILLER_0_1_167
*770 FILLER_0_1_169
*771 FILLER_0_1_181
*772 FILLER_0_1_193
*773 FILLER_0_1_205
*774 FILLER_0_1_217
*775 FILLER_0_1_223
*776 FILLER_0_1_225
*777 FILLER_0_1_237
*778 FILLER_0_1_249
*779 FILLER_0_1_261
*780 FILLER_0_1_27
*781 FILLER_0_1_273
*782 FILLER_0_1_279
*783 FILLER_0_1_281
*784 FILLER_0_1_293
*785 FILLER_0_1_3
*786 FILLER_0_1_305
*787 FILLER_0_1_317
*788 FILLER_0_1_329
*789 FILLER_0_1_39
*790 FILLER_0_1_51
*791 FILLER_0_1_55
*792 FILLER_0_1_57
*793 FILLER_0_1_69
*794 FILLER_0_1_81
*795 FILLER_0_1_93
*796 FILLER_0_20_109
*797 FILLER_0_20_121
*798 FILLER_0_20_133
*799 FILLER_0_20_139
*800 FILLER_0_20_141
*801 FILLER_0_20_15
*802 FILLER_0_20_153
*803 FILLER_0_20_165
*804 FILLER_0_20_177
*805 FILLER_0_20_189
*806 FILLER_0_20_195
*807 FILLER_0_20_197
*808 FILLER_0_20_209
*809 FILLER_0_20_221
*810 FILLER_0_20_233
*811 FILLER_0_20_245
*812 FILLER_0_20_251
*813 FILLER_0_20_253
*814 FILLER_0_20_265
*815 FILLER_0_20_27
*816 FILLER_0_20_277
*817 FILLER_0_20_289
*818 FILLER_0_20_29
*819 FILLER_0_20_3
*820 FILLER_0_20_301
*821 FILLER_0_20_307
*822 FILLER_0_20_309
*823 FILLER_0_20_321
*824 FILLER_0_20_333
*825 FILLER_0_20_41
*826 FILLER_0_20_53
*827 FILLER_0_20_65
*828 FILLER_0_20_77
*829 FILLER_0_20_83
*830 FILLER_0_20_85
*831 FILLER_0_20_97
*832 FILLER_0_21_105
*833 FILLER_0_21_111
*834 FILLER_0_21_113
*835 FILLER_0_21_125
*836 FILLER_0_21_137
*837 FILLER_0_21_149
*838 FILLER_0_21_15
*839 FILLER_0_21_161
*840 FILLER_0_21_167
*841 FILLER_0_21_169
*842 FILLER_0_21_181
*843 FILLER_0_21_193
*844 FILLER_0_21_205
*845 FILLER_0_21_217
*846 FILLER_0_21_223
*847 FILLER_0_21_225
*848 FILLER_0_21_237
*849 FILLER_0_21_249
*850 FILLER_0_21_261
*851 FILLER_0_21_27
*852 FILLER_0_21_273
*853 FILLER_0_21_279
*854 FILLER_0_21_281
*855 FILLER_0_21_293
*856 FILLER_0_21_3
*857 FILLER_0_21_305
*858 FILLER_0_21_317
*859 FILLER_0_21_329
*860 FILLER_0_21_39
*861 FILLER_0_21_51
*862 FILLER_0_21_55
*863 FILLER_0_21_57
*864 FILLER_0_21_69
*865 FILLER_0_21_81
*866 FILLER_0_21_93
*867 FILLER_0_22_109
*868 FILLER_0_22_121
*869 FILLER_0_22_133
*870 FILLER_0_22_139
*871 FILLER_0_22_141
*872 FILLER_0_22_15
*873 FILLER_0_22_153
*874 FILLER_0_22_174
*875 FILLER_0_22_183
*876 FILLER_0_22_195
*877 FILLER_0_22_197
*878 FILLER_0_22_209
*879 FILLER_0_22_221
*880 FILLER_0_22_233
*881 FILLER_0_22_241
*882 FILLER_0_22_251
*883 FILLER_0_22_253
*884 FILLER_0_22_265
*885 FILLER_0_22_27
*886 FILLER_0_22_277
*887 FILLER_0_22_289
*888 FILLER_0_22_29
*889 FILLER_0_22_3
*890 FILLER_0_22_301
*891 FILLER_0_22_307
*892 FILLER_0_22_309
*893 FILLER_0_22_321
*894 FILLER_0_22_333
*895 FILLER_0_22_41
*896 FILLER_0_22_53
*897 FILLER_0_22_65
*898 FILLER_0_22_77
*899 FILLER_0_22_83
*900 FILLER_0_22_85
*901 FILLER_0_22_97
*902 FILLER_0_23_105
*903 FILLER_0_23_111
*904 FILLER_0_23_113
*905 FILLER_0_23_125
*906 FILLER_0_23_15
*907 FILLER_0_23_158
*908 FILLER_0_23_164
*909 FILLER_0_23_169
*910 FILLER_0_23_181
*911 FILLER_0_23_204
*912 FILLER_0_23_215
*913 FILLER_0_23_260
*914 FILLER_0_23_269
*915 FILLER_0_23_27
*916 FILLER_0_23_281
*917 FILLER_0_23_293
*918 FILLER_0_23_3
*919 FILLER_0_23_305
*920 FILLER_0_23_317
*921 FILLER_0_23_329
*922 FILLER_0_23_39
*923 FILLER_0_23_51
*924 FILLER_0_23_55
*925 FILLER_0_23_57
*926 FILLER_0_23_69
*927 FILLER_0_23_81
*928 FILLER_0_23_93
*929 FILLER_0_24_109
*930 FILLER_0_24_121
*931 FILLER_0_24_129
*932 FILLER_0_24_135
*933 FILLER_0_24_15
*934 FILLER_0_24_194
*935 FILLER_0_24_200
*936 FILLER_0_24_250
*937 FILLER_0_24_27
*938 FILLER_0_24_29
*939 FILLER_0_24_3
*940 FILLER_0_24_301
*941 FILLER_0_24_307
*942 FILLER_0_24_309
*943 FILLER_0_24_321
*944 FILLER_0_24_333
*945 FILLER_0_24_41
*946 FILLER_0_24_53
*947 FILLER_0_24_65
*948 FILLER_0_24_77
*949 FILLER_0_24_83
*950 FILLER_0_24_85
*951 FILLER_0_24_97
*952 FILLER_0_25_105
*953 FILLER_0_25_111
*954 FILLER_0_25_113
*955 FILLER_0_25_15
*956 FILLER_0_25_162
*957 FILLER_0_25_169
*958 FILLER_0_25_213
*959 FILLER_0_25_231
*960 FILLER_0_25_259
*961 FILLER_0_25_27
*962 FILLER_0_25_293
*963 FILLER_0_25_3
*964 FILLER_0_25_332
*965 FILLER_0_25_39
*966 FILLER_0_25_51
*967 FILLER_0_25_55
*968 FILLER_0_25_57
*969 FILLER_0_25_69
*970 FILLER_0_25_81
*971 FILLER_0_25_93
*972 FILLER_0_26_109
*973 FILLER_0_26_121
*974 FILLER_0_26_127
*975 FILLER_0_26_131
*976 FILLER_0_26_141
*977 FILLER_0_26_15
*978 FILLER_0_26_158
*979 FILLER_0_26_174
*980 FILLER_0_26_193
*981 FILLER_0_26_208
*982 FILLER_0_26_214
*983 FILLER_0_26_218
*984 FILLER_0_26_228
*985 FILLER_0_26_253
*986 FILLER_0_26_257
*987 FILLER_0_26_27
*988 FILLER_0_26_29
*989 FILLER_0_26_3
*990 FILLER_0_26_306
*991 FILLER_0_26_329
*992 FILLER_0_26_41
*993 FILLER_0_26_53
*994 FILLER_0_26_65
*995 FILLER_0_26_77
*996 FILLER_0_26_83
*997 FILLER_0_26_85
*998 FILLER_0_26_97
*999 FILLER_0_27_105
*1000 FILLER_0_27_111
*1001 FILLER_0_27_140
*1002 FILLER_0_27_15
*1003 FILLER_0_27_165
*1004 FILLER_0_27_169
*1005 FILLER_0_27_181
*1006 FILLER_0_27_207
*1007 FILLER_0_27_222
*1008 FILLER_0_27_241
*1009 FILLER_0_27_245
*1010 FILLER_0_27_261
*1011 FILLER_0_27_27
*1012 FILLER_0_27_277
*1013 FILLER_0_27_281
*1014 FILLER_0_27_3
*1015 FILLER_0_27_305
*1016 FILLER_0_27_332
*1017 FILLER_0_27_39
*1018 FILLER_0_27_51
*1019 FILLER_0_27_55
*1020 FILLER_0_27_57
*1021 FILLER_0_27_69
*1022 FILLER_0_27_81
*1023 FILLER_0_27_93
*1024 FILLER_0_28_109
*1025 FILLER_0_28_139
*1026 FILLER_0_28_141
*1027 FILLER_0_28_15
*1028 FILLER_0_28_167
*1029 FILLER_0_28_179
*1030 FILLER_0_28_236
*1031 FILLER_0_28_248
*1032 FILLER_0_28_253
*1033 FILLER_0_28_259
*1034 FILLER_0_28_266
*1035 FILLER_0_28_27
*1036 FILLER_0_28_29
*1037 FILLER_0_28_3
*1038 FILLER_0_28_307
*1039 FILLER_0_28_329
*1040 FILLER_0_28_41
*1041 FILLER_0_28_53
*1042 FILLER_0_28_65
*1043 FILLER_0_28_77
*1044 FILLER_0_28_83
*1045 FILLER_0_28_85
*1046 FILLER_0_28_97
*1047 FILLER_0_29_105
*1048 FILLER_0_29_142
*1049 FILLER_0_29_15
*1050 FILLER_0_29_164
*1051 FILLER_0_29_169
*1052 FILLER_0_29_202
*1053 FILLER_0_29_223
*1054 FILLER_0_29_248
*1055 FILLER_0_29_264
*1056 FILLER_0_29_27
*1057 FILLER_0_29_275
*1058 FILLER_0_29_279
*1059 FILLER_0_29_3
*1060 FILLER_0_29_307
*1061 FILLER_0_29_320
*1062 FILLER_0_29_332
*1063 FILLER_0_29_39
*1064 FILLER_0_29_51
*1065 FILLER_0_29_55
*1066 FILLER_0_29_57
*1067 FILLER_0_29_69
*1068 FILLER_0_29_81
*1069 FILLER_0_29_93
*1070 FILLER_0_2_109
*1071 FILLER_0_2_121
*1072 FILLER_0_2_133
*1073 FILLER_0_2_139
*1074 FILLER_0_2_141
*1075 FILLER_0_2_15
*1076 FILLER_0_2_153
*1077 FILLER_0_2_165
*1078 FILLER_0_2_177
*1079 FILLER_0_2_189
*1080 FILLER_0_2_195
*1081 FILLER_0_2_197
*1082 FILLER_0_2_209
*1083 FILLER_0_2_221
*1084 FILLER_0_2_233
*1085 FILLER_0_2_245
*1086 FILLER_0_2_251
*1087 FILLER_0_2_253
*1088 FILLER_0_2_265
*1089 FILLER_0_2_27
*1090 FILLER_0_2_277
*1091 FILLER_0_2_289
*1092 FILLER_0_2_29
*1093 FILLER_0_2_3
*1094 FILLER_0_2_301
*1095 FILLER_0_2_307
*1096 FILLER_0_2_309
*1097 FILLER_0_2_321
*1098 FILLER_0_2_333
*1099 FILLER_0_2_41
*1100 FILLER_0_2_53
*1101 FILLER_0_2_65
*1102 FILLER_0_2_77
*1103 FILLER_0_2_83
*1104 FILLER_0_2_85
*1105 FILLER_0_2_97
*1106 FILLER_0_30_102
*1107 FILLER_0_30_138
*1108 FILLER_0_30_149
*1109 FILLER_0_30_15
*1110 FILLER_0_30_166
*1111 FILLER_0_30_174
*1112 FILLER_0_30_191
*1113 FILLER_0_30_195
*1114 FILLER_0_30_204
*1115 FILLER_0_30_245
*1116 FILLER_0_30_27
*1117 FILLER_0_30_29
*1118 FILLER_0_30_3
*1119 FILLER_0_30_329
*1120 FILLER_0_30_41
*1121 FILLER_0_30_53
*1122 FILLER_0_30_65
*1123 FILLER_0_30_77
*1124 FILLER_0_30_83
*1125 FILLER_0_30_85
*1126 FILLER_0_30_97
*1127 FILLER_0_31_108
*1128 FILLER_0_31_122
*1129 FILLER_0_31_139
*1130 FILLER_0_31_15
*1131 FILLER_0_31_153
*1132 FILLER_0_31_164
*1133 FILLER_0_31_169
*1134 FILLER_0_31_181
*1135 FILLER_0_31_193
*1136 FILLER_0_31_223
*1137 FILLER_0_31_27
*1138 FILLER_0_31_295
*1139 FILLER_0_31_3
*1140 FILLER_0_31_330
*1141 FILLER_0_31_334
*1142 FILLER_0_31_39
*1143 FILLER_0_31_51
*1144 FILLER_0_31_55
*1145 FILLER_0_31_57
*1146 FILLER_0_31_69
*1147 FILLER_0_31_81
*1148 FILLER_0_31_87
*1149 FILLER_0_32_128
*1150 FILLER_0_32_138
*1151 FILLER_0_32_15
*1152 FILLER_0_32_192
*1153 FILLER_0_32_204
*1154 FILLER_0_32_233
*1155 FILLER_0_32_27
*1156 FILLER_0_32_281
*1157 FILLER_0_32_29
*1158 FILLER_0_32_3
*1159 FILLER_0_32_332
*1160 FILLER_0_32_41
*1161 FILLER_0_32_53
*1162 FILLER_0_32_65
*1163 FILLER_0_32_77
*1164 FILLER_0_32_83
*1165 FILLER_0_32_85
*1166 FILLER_0_32_89
*1167 FILLER_0_33_106
*1168 FILLER_0_33_133
*1169 FILLER_0_33_137
*1170 FILLER_0_33_15
*1171 FILLER_0_33_169
*1172 FILLER_0_33_221
*1173 FILLER_0_33_239
*1174 FILLER_0_33_27
*1175 FILLER_0_33_275
*1176 FILLER_0_33_279
*1177 FILLER_0_33_281
*1178 FILLER_0_33_287
*1179 FILLER_0_33_3
*1180 FILLER_0_33_328
*1181 FILLER_0_33_334
*1182 FILLER_0_33_39
*1183 FILLER_0_33_51
*1184 FILLER_0_33_55
*1185 FILLER_0_33_57
*1186 FILLER_0_33_69
*1187 FILLER_0_33_81
*1188 FILLER_0_33_85
*1189 FILLER_0_34_109
*1190 FILLER_0_34_129
*1191 FILLER_0_34_141
*1192 FILLER_0_34_15
*1193 FILLER_0_34_152
*1194 FILLER_0_34_194
*1195 FILLER_0_34_209
*1196 FILLER_0_34_236
*1197 FILLER_0_34_248
*1198 FILLER_0_34_253
*1199 FILLER_0_34_27
*1200 FILLER_0_34_29
*1201 FILLER_0_34_293
*1202 FILLER_0_34_3
*1203 FILLER_0_34_332
*1204 FILLER_0_34_41
*1205 FILLER_0_34_53
*1206 FILLER_0_34_65
*1207 FILLER_0_34_77
*1208 FILLER_0_34_83
*1209 FILLER_0_34_85
*1210 FILLER_0_34_96
*1211 FILLER_0_35_137
*1212 FILLER_0_35_15
*1213 FILLER_0_35_159
*1214 FILLER_0_35_167
*1215 FILLER_0_35_176
*1216 FILLER_0_35_188
*1217 FILLER_0_35_200
*1218 FILLER_0_35_211
*1219 FILLER_0_35_215
*1220 FILLER_0_35_219
*1221 FILLER_0_35_223
*1222 FILLER_0_35_233
*1223 FILLER_0_35_245
*1224 FILLER_0_35_27
*1225 FILLER_0_35_279
*1226 FILLER_0_35_3
*1227 FILLER_0_35_300
*1228 FILLER_0_35_333
*1229 FILLER_0_35_39
*1230 FILLER_0_35_51
*1231 FILLER_0_35_55
*1232 FILLER_0_35_57
*1233 FILLER_0_35_69
*1234 FILLER_0_35_81
*1235 FILLER_0_35_85
*1236 FILLER_0_36_136
*1237 FILLER_0_36_141
*1238 FILLER_0_36_15
*1239 FILLER_0_36_173
*1240 FILLER_0_36_177
*1241 FILLER_0_36_194
*1242 FILLER_0_36_205
*1243 FILLER_0_36_213
*1244 FILLER_0_36_27
*1245 FILLER_0_36_29
*1246 FILLER_0_36_3
*1247 FILLER_0_36_41
*1248 FILLER_0_36_53
*1249 FILLER_0_36_65
*1250 FILLER_0_36_77
*1251 FILLER_0_36_83
*1252 FILLER_0_36_85
*1253 FILLER_0_37_108
*1254 FILLER_0_37_121
*1255 FILLER_0_37_132
*1256 FILLER_0_37_15
*1257 FILLER_0_37_165
*1258 FILLER_0_37_169
*1259 FILLER_0_37_173
*1260 FILLER_0_37_210
*1261 FILLER_0_37_214
*1262 FILLER_0_37_229
*1263 FILLER_0_37_27
*1264 FILLER_0_37_279
*1265 FILLER_0_37_281
*1266 FILLER_0_37_3
*1267 FILLER_0_37_334
*1268 FILLER_0_37_39
*1269 FILLER_0_37_51
*1270 FILLER_0_37_55
*1271 FILLER_0_37_57
*1272 FILLER_0_37_69
*1273 FILLER_0_37_81
*1274 FILLER_0_37_93
*1275 FILLER_0_37_99
*1276 FILLER_0_38_10
*1277 FILLER_0_38_102
*1278 FILLER_0_38_106
*1279 FILLER_0_38_110
*1280 FILLER_0_38_113
*1281 FILLER_0_38_126
*1282 FILLER_0_38_130
*1283 FILLER_0_38_134
*1284 FILLER_0_38_14
*1285 FILLER_0_38_144
*1286 FILLER_0_38_158
*1287 FILLER_0_38_162
*1288 FILLER_0_38_166
*1289 FILLER_0_38_169
*1290 FILLER_0_38_177
*1291 FILLER_0_38_18
*1292 FILLER_0_38_195
*1293 FILLER_0_38_205
*1294 FILLER_0_38_215
*1295 FILLER_0_38_22
*1296 FILLER_0_38_251
*1297 FILLER_0_38_258
*1298 FILLER_0_38_279
*1299 FILLER_0_38_289
*1300 FILLER_0_38_298
*1301 FILLER_0_38_306
*1302 FILLER_0_38_32
*1303 FILLER_0_38_325
*1304 FILLER_0_38_38
*1305 FILLER_0_38_42
*1306 FILLER_0_38_46
*1307 FILLER_0_38_50
*1308 FILLER_0_38_54
*1309 FILLER_0_38_57
*1310 FILLER_0_38_6
*1311 FILLER_0_38_62
*1312 FILLER_0_38_66
*1313 FILLER_0_38_70
*1314 FILLER_0_38_74
*1315 FILLER_0_38_78
*1316 FILLER_0_38_88
*1317 FILLER_0_38_94
*1318 FILLER_0_38_98
*1319 FILLER_0_3_105
*1320 FILLER_0_3_111
*1321 FILLER_0_3_113
*1322 FILLER_0_3_125
*1323 FILLER_0_3_137
*1324 FILLER_0_3_149
*1325 FILLER_0_3_15
*1326 FILLER_0_3_161
*1327 FILLER_0_3_167
*1328 FILLER_0_3_169
*1329 FILLER_0_3_181
*1330 FILLER_0_3_193
*1331 FILLER_0_3_205
*1332 FILLER_0_3_217
*1333 FILLER_0_3_223
*1334 FILLER_0_3_225
*1335 FILLER_0_3_237
*1336 FILLER_0_3_249
*1337 FILLER_0_3_261
*1338 FILLER_0_3_27
*1339 FILLER_0_3_273
*1340 FILLER_0_3_279
*1341 FILLER_0_3_281
*1342 FILLER_0_3_293
*1343 FILLER_0_3_3
*1344 FILLER_0_3_305
*1345 FILLER_0_3_317
*1346 FILLER_0_3_329
*1347 FILLER_0_3_39
*1348 FILLER_0_3_51
*1349 FILLER_0_3_55
*1350 FILLER_0_3_57
*1351 FILLER_0_3_69
*1352 FILLER_0_3_81
*1353 FILLER_0_3_93
*1354 FILLER_0_4_109
*1355 FILLER_0_4_121
*1356 FILLER_0_4_133
*1357 FILLER_0_4_139
*1358 FILLER_0_4_141
*1359 FILLER_0_4_15
*1360 FILLER_0_4_153
*1361 FILLER_0_4_165
*1362 FILLER_0_4_177
*1363 FILLER_0_4_189
*1364 FILLER_0_4_195
*1365 FILLER_0_4_197
*1366 FILLER_0_4_209
*1367 FILLER_0_4_221
*1368 FILLER_0_4_233
*1369 FILLER_0_4_245
*1370 FILLER_0_4_251
*1371 FILLER_0_4_253
*1372 FILLER_0_4_265
*1373 FILLER_0_4_27
*1374 FILLER_0_4_277
*1375 FILLER_0_4_289
*1376 FILLER_0_4_29
*1377 FILLER_0_4_3
*1378 FILLER_0_4_301
*1379 FILLER_0_4_307
*1380 FILLER_0_4_309
*1381 FILLER_0_4_321
*1382 FILLER_0_4_333
*1383 FILLER_0_4_41
*1384 FILLER_0_4_53
*1385 FILLER_0_4_65
*1386 FILLER_0_4_77