*SPEF "ieee 1481-1999"
*DESIGN "tt_um_wokwi_399163158804194305"
*DATE "23:12:29 Tuesday May 28, 2024"
*VENDOR "The OpenROAD Project"
*PROGRAM "OpenROAD"
*VERSION "da0053d7b0014ab9c87ea148875ff6c2a0f9b658"
*DESIGN_FLOW "NAME_SCOPE LOCAL" "PIN_CAP NONE"
*DIVIDER /
*DELIMITER :
*BUS_DELIMITER []
*T_UNIT 1 NS
*C_UNIT 1 PF
*R_UNIT 1 OHM
*L_UNIT 1 HENRY

*NAME_MAP
*3 clk
*4 ena
*5 rst_n
*6 ui_in[0]
*7 ui_in[1]
*8 ui_in[2]
*9 ui_in[3]
*10 ui_in[4]
*11 ui_in[5]
*12 ui_in[6]
*13 ui_in[7]
*14 uio_in[0]
*15 uio_in[1]
*16 uio_in[2]
*17 uio_in[3]
*18 uio_in[4]
*19 uio_in[5]
*20 uio_in[6]
*21 uio_in[7]
*22 net10
*23 net11
*24 net12
*25 net13
*26 net22
*27 net23
*28 net14
*29 net15
*30 net16
*31 net17
*32 net18
*33 net19
*34 uio_out[4]
*35 uio_out[5]
*36 net20
*37 net21
*38 uo_out[0]
*39 uo_out[1]
*40 uo_out[2]
*41 uo_out[3]
*42 uo_out[4]
*43 uo_out[5]
*44 uo_out[6]
*45 uo_out[7]
*46 _00_
*47 _01_
*48 _02_
*49 _03_
*50 _04_
*51 _05_
*52 _06_
*53 _07_
*54 _08_
*55 _09_
*56 _10_
*57 _11_
*58 _12_
*59 _13_
*60 _14_
*61 _15_
*62 _16_
*63 _17_
*64 _18_
*65 _19_
*66 _20_
*67 _21_
*68 and1\.a
*69 and1\.b
*70 and2\.b
*71 and3\.b
*72 and4\.a
*73 and5\.b
*74 and6\.b
*75 clknet_0_clk
*76 clknet_1_0__leaf_clk
*77 clknet_1_1__leaf_clk
*78 flop1\.q
*79 flop10\.q
*80 flop11\.q
*81 flop12\.d
*82 flop13\.d
*83 flop14\.d
*84 flop15\.d
*85 flop16\.d
*86 flop17\.d
*87 flop17\.q
*88 flop2\.d
*89 flop3\.d
*90 flop4\.q
*91 flop5\.q
*92 flop6\.q
*93 flop7\.q
*94 flop8\.q
*95 flop9\.q
*96 net1
*97 net2
*98 net24
*99 net25
*100 net26
*101 net27
*102 net28
*103 net29
*104 net3
*105 net30
*106 net31
*107 net32
*108 net33
*109 net4
*110 net5
*111 net6
*112 net7
*113 net8
*114 net9
*115 not1\.out
*116 FILLER_0_0_109
*117 FILLER_0_0_113
*118 FILLER_0_0_125
*119 FILLER_0_0_137
*120 FILLER_0_0_141
*121 FILLER_0_0_15
*122 FILLER_0_0_153
*123 FILLER_0_0_165
*124 FILLER_0_0_169
*125 FILLER_0_0_181
*126 FILLER_0_0_193
*127 FILLER_0_0_197
*128 FILLER_0_0_209
*129 FILLER_0_0_221
*130 FILLER_0_0_225
*131 FILLER_0_0_237
*132 FILLER_0_0_249
*133 FILLER_0_0_253
*134 FILLER_0_0_265
*135 FILLER_0_0_27
*136 FILLER_0_0_277
*137 FILLER_0_0_281
*138 FILLER_0_0_29
*139 FILLER_0_0_293
*140 FILLER_0_0_3
*141 FILLER_0_0_305
*142 FILLER_0_0_309
*143 FILLER_0_0_321
*144 FILLER_0_0_333
*145 FILLER_0_0_41
*146 FILLER_0_0_53
*147 FILLER_0_0_57
*148 FILLER_0_0_69
*149 FILLER_0_0_81
*150 FILLER_0_0_85
*151 FILLER_0_0_97
*152 FILLER_0_10_109
*153 FILLER_0_10_121
*154 FILLER_0_10_133
*155 FILLER_0_10_139
*156 FILLER_0_10_141
*157 FILLER_0_10_15
*158 FILLER_0_10_153
*159 FILLER_0_10_165
*160 FILLER_0_10_177
*161 FILLER_0_10_189
*162 FILLER_0_10_195
*163 FILLER_0_10_197
*164 FILLER_0_10_209
*165 FILLER_0_10_221
*166 FILLER_0_10_233
*167 FILLER_0_10_245
*168 FILLER_0_10_251
*169 FILLER_0_10_253
*170 FILLER_0_10_265
*171 FILLER_0_10_27
*172 FILLER_0_10_277
*173 FILLER_0_10_289
*174 FILLER_0_10_29
*175 FILLER_0_10_3
*176 FILLER_0_10_301
*177 FILLER_0_10_307
*178 FILLER_0_10_309
*179 FILLER_0_10_321
*180 FILLER_0_10_333
*181 FILLER_0_10_41
*182 FILLER_0_10_53
*183 FILLER_0_10_65
*184 FILLER_0_10_77
*185 FILLER_0_10_83
*186 FILLER_0_10_85
*187 FILLER_0_10_97
*188 FILLER_0_11_105
*189 FILLER_0_11_111
*190 FILLER_0_11_113
*191 FILLER_0_11_125
*192 FILLER_0_11_137
*193 FILLER_0_11_149
*194 FILLER_0_11_15
*195 FILLER_0_11_161
*196 FILLER_0_11_167
*197 FILLER_0_11_169
*198 FILLER_0_11_181
*199 FILLER_0_11_193
*200 FILLER_0_11_205
*201 FILLER_0_11_217
*202 FILLER_0_11_223
*203 FILLER_0_11_225
*204 FILLER_0_11_237
*205 FILLER_0_11_249
*206 FILLER_0_11_261
*207 FILLER_0_11_27
*208 FILLER_0_11_273
*209 FILLER_0_11_279
*210 FILLER_0_11_281
*211 FILLER_0_11_293
*212 FILLER_0_11_3
*213 FILLER_0_11_305
*214 FILLER_0_11_317
*215 FILLER_0_11_329
*216 FILLER_0_11_39
*217 FILLER_0_11_51
*218 FILLER_0_11_55
*219 FILLER_0_11_57
*220 FILLER_0_11_69
*221 FILLER_0_11_81
*222 FILLER_0_11_93
*223 FILLER_0_12_109
*224 FILLER_0_12_121
*225 FILLER_0_12_133
*226 FILLER_0_12_139
*227 FILLER_0_12_141
*228 FILLER_0_12_15
*229 FILLER_0_12_153
*230 FILLER_0_12_165
*231 FILLER_0_12_177
*232 FILLER_0_12_189
*233 FILLER_0_12_195
*234 FILLER_0_12_197
*235 FILLER_0_12_209
*236 FILLER_0_12_221
*237 FILLER_0_12_233
*238 FILLER_0_12_245
*239 FILLER_0_12_251
*240 FILLER_0_12_253
*241 FILLER_0_12_265
*242 FILLER_0_12_27
*243 FILLER_0_12_277
*244 FILLER_0_12_289
*245 FILLER_0_12_29
*246 FILLER_0_12_3
*247 FILLER_0_12_301
*248 FILLER_0_12_307
*249 FILLER_0_12_309
*250 FILLER_0_12_321
*251 FILLER_0_12_333
*252 FILLER_0_12_41
*253 FILLER_0_12_53
*254 FILLER_0_12_65
*255 FILLER_0_12_77
*256 FILLER_0_12_83
*257 FILLER_0_12_85
*258 FILLER_0_12_97
*259 FILLER_0_13_105
*260 FILLER_0_13_111
*261 FILLER_0_13_113
*262 FILLER_0_13_125
*263 FILLER_0_13_137
*264 FILLER_0_13_149
*265 FILLER_0_13_15
*266 FILLER_0_13_161
*267 FILLER_0_13_167
*268 FILLER_0_13_169
*269 FILLER_0_13_181
*270 FILLER_0_13_193
*271 FILLER_0_13_205
*272 FILLER_0_13_217
*273 FILLER_0_13_223
*274 FILLER_0_13_225
*275 FILLER_0_13_237
*276 FILLER_0_13_249
*277 FILLER_0_13_261
*278 FILLER_0_13_27
*279 FILLER_0_13_273
*280 FILLER_0_13_279
*281 FILLER_0_13_281
*282 FILLER_0_13_293
*283 FILLER_0_13_3
*284 FILLER_0_13_305
*285 FILLER_0_13_317
*286 FILLER_0_13_329
*287 FILLER_0_13_39
*288 FILLER_0_13_51
*289 FILLER_0_13_55
*290 FILLER_0_13_57
*291 FILLER_0_13_69
*292 FILLER_0_13_81
*293 FILLER_0_13_93
*294 FILLER_0_14_109
*295 FILLER_0_14_121
*296 FILLER_0_14_133
*297 FILLER_0_14_139
*298 FILLER_0_14_141
*299 FILLER_0_14_15
*300 FILLER_0_14_153
*301 FILLER_0_14_165
*302 FILLER_0_14_177
*303 FILLER_0_14_189
*304 FILLER_0_14_195
*305 FILLER_0_14_197
*306 FILLER_0_14_209
*307 FILLER_0_14_221
*308 FILLER_0_14_233
*309 FILLER_0_14_245
*310 FILLER_0_14_251
*311 FILLER_0_14_253
*312 FILLER_0_14_265
*313 FILLER_0_14_27
*314 FILLER_0_14_277
*315 FILLER_0_14_289
*316 FILLER_0_14_29
*317 FILLER_0_14_3
*318 FILLER_0_14_301
*319 FILLER_0_14_307
*320 FILLER_0_14_309
*321 FILLER_0_14_321
*322 FILLER_0_14_333
*323 FILLER_0_14_41
*324 FILLER_0_14_53
*325 FILLER_0_14_65
*326 FILLER_0_14_77
*327 FILLER_0_14_83
*328 FILLER_0_14_85
*329 FILLER_0_14_97
*330 FILLER_0_15_105
*331 FILLER_0_15_111
*332 FILLER_0_15_113
*333 FILLER_0_15_125
*334 FILLER_0_15_137
*335 FILLER_0_15_149
*336 FILLER_0_15_15
*337 FILLER_0_15_161
*338 FILLER_0_15_167
*339 FILLER_0_15_169
*340 FILLER_0_15_181
*341 FILLER_0_15_193
*342 FILLER_0_15_205
*343 FILLER_0_15_217
*344 FILLER_0_15_223
*345 FILLER_0_15_225
*346 FILLER_0_15_237
*347 FILLER_0_15_249
*348 FILLER_0_15_261
*349 FILLER_0_15_27
*350 FILLER_0_15_273
*351 FILLER_0_15_279
*352 FILLER_0_15_281
*353 FILLER_0_15_293
*354 FILLER_0_15_3
*355 FILLER_0_15_305
*356 FILLER_0_15_317
*357 FILLER_0_15_329
*358 FILLER_0_15_39
*359 FILLER_0_15_51
*360 FILLER_0_15_55
*361 FILLER_0_15_57
*362 FILLER_0_15_69
*363 FILLER_0_15_81
*364 FILLER_0_15_93
*365 FILLER_0_16_109
*366 FILLER_0_16_121
*367 FILLER_0_16_133
*368 FILLER_0_16_139
*369 FILLER_0_16_141
*370 FILLER_0_16_15
*371 FILLER_0_16_153
*372 FILLER_0_16_165
*373 FILLER_0_16_177
*374 FILLER_0_16_189
*375 FILLER_0_16_195
*376 FILLER_0_16_197
*377 FILLER_0_16_209
*378 FILLER_0_16_221
*379 FILLER_0_16_233
*380 FILLER_0_16_245
*381 FILLER_0_16_251
*382 FILLER_0_16_253
*383 FILLER_0_16_265
*384 FILLER_0_16_27
*385 FILLER_0_16_277
*386 FILLER_0_16_289
*387 FILLER_0_16_29
*388 FILLER_0_16_3
*389 FILLER_0_16_301
*390 FILLER_0_16_307
*391 FILLER_0_16_309
*392 FILLER_0_16_321
*393 FILLER_0_16_333
*394 FILLER_0_16_41
*395 FILLER_0_16_53
*396 FILLER_0_16_65
*397 FILLER_0_16_77
*398 FILLER_0_16_83
*399 FILLER_0_16_85
*400 FILLER_0_16_97
*401 FILLER_0_17_105
*402 FILLER_0_17_111
*403 FILLER_0_17_113
*404 FILLER_0_17_125
*405 FILLER_0_17_137
*406 FILLER_0_17_149
*407 FILLER_0_17_15
*408 FILLER_0_17_161
*409 FILLER_0_17_167
*410 FILLER_0_17_169
*411 FILLER_0_17_181
*412 FILLER_0_17_193
*413 FILLER_0_17_205
*414 FILLER_0_17_217
*415 FILLER_0_17_223
*416 FILLER_0_17_225
*417 FILLER_0_17_237
*418 FILLER_0_17_249
*419 FILLER_0_17_261
*420 FILLER_0_17_27
*421 FILLER_0_17_273
*422 FILLER_0_17_279
*423 FILLER_0_17_281
*424 FILLER_0_17_293
*425 FILLER_0_17_3
*426 FILLER_0_17_305
*427 FILLER_0_17_317
*428 FILLER_0_17_329
*429 FILLER_0_17_39
*430 FILLER_0_17_51
*431 FILLER_0_17_55
*432 FILLER_0_17_57
*433 FILLER_0_17_69
*434 FILLER_0_17_81
*435 FILLER_0_17_93
*436 FILLER_0_18_109
*437 FILLER_0_18_121
*438 FILLER_0_18_133
*439 FILLER_0_18_139
*440 FILLER_0_18_141
*441 FILLER_0_18_15
*442 FILLER_0_18_153
*443 FILLER_0_18_165
*444 FILLER_0_18_177
*445 FILLER_0_18_189
*446 FILLER_0_18_195
*447 FILLER_0_18_197
*448 FILLER_0_18_209
*449 FILLER_0_18_221
*450 FILLER_0_18_233
*451 FILLER_0_18_245
*452 FILLER_0_18_251
*453 FILLER_0_18_253
*454 FILLER_0_18_265
*455 FILLER_0_18_27
*456 FILLER_0_18_277
*457 FILLER_0_18_289
*458 FILLER_0_18_29
*459 FILLER_0_18_3
*460 FILLER_0_18_301
*461 FILLER_0_18_307
*462 FILLER_0_18_309
*463 FILLER_0_18_321
*464 FILLER_0_18_333
*465 FILLER_0_18_41
*466 FILLER_0_18_53
*467 FILLER_0_18_65
*468 FILLER_0_18_77
*469 FILLER_0_18_83
*470 FILLER_0_18_85
*471 FILLER_0_18_97
*472 FILLER_0_19_105
*473 FILLER_0_19_111
*474 FILLER_0_19_113
*475 FILLER_0_19_125
*476 FILLER_0_19_137
*477 FILLER_0_19_149
*478 FILLER_0_19_15
*479 FILLER_0_19_161
*480 FILLER_0_19_167
*481 FILLER_0_19_169
*482 FILLER_0_19_181
*483 FILLER_0_19_193
*484 FILLER_0_19_205
*485 FILLER_0_19_217
*486 FILLER_0_19_223
*487 FILLER_0_19_225
*488 FILLER_0_19_237
*489 FILLER_0_19_249
*490 FILLER_0_19_261
*491 FILLER_0_19_27
*492 FILLER_0_19_273
*493 FILLER_0_19_279
*494 FILLER_0_19_281
*495 FILLER_0_19_293
*496 FILLER_0_19_3
*497 FILLER_0_19_305
*498 FILLER_0_19_317
*499 FILLER_0_19_329
*500 FILLER_0_19_39
*501 FILLER_0_19_51
*502 FILLER_0_19_55
*503 FILLER_0_19_57
*504 FILLER_0_19_69
*505 FILLER_0_19_81
*506 FILLER_0_19_93
*507 FILLER_0_1_105
*508 FILLER_0_1_111
*509 FILLER_0_1_113
*510 FILLER_0_1_125
*511 FILLER_0_1_137
*512 FILLER_0_1_149
*513 FILLER_0_1_15
*514 FILLER_0_1_161
*515 FILLER_0_1_167
*516 FILLER_0_1_169
*517 FILLER_0_1_181
*518 FILLER_0_1_193
*519 FILLER_0_1_205
*520 FILLER_0_1_217
*521 FILLER_0_1_223
*522 FILLER_0_1_225
*523 FILLER_0_1_237
*524 FILLER_0_1_249
*525 FILLER_0_1_261
*526 FILLER_0_1_27
*527 FILLER_0_1_273
*528 FILLER_0_1_279
*529 FILLER_0_1_281
*530 FILLER_0_1_293
*531 FILLER_0_1_3
*532 FILLER_0_1_305
*533 FILLER_0_1_317
*534 FILLER_0_1_329
*535 FILLER_0_1_39
*536 FILLER_0_1_51
*537 FILLER_0_1_55
*538 FILLER_0_1_57
*539 FILLER_0_1_69
*540 FILLER_0_1_81
*541 FILLER_0_1_93
*542 FILLER_0_20_109
*543 FILLER_0_20_121
*544 FILLER_0_20_133
*545 FILLER_0_20_139
*546 FILLER_0_20_141
*547 FILLER_0_20_15
*548 FILLER_0_20_153
*549 FILLER_0_20_165
*550 FILLER_0_20_177
*551 FILLER_0_20_189
*552 FILLER_0_20_195
*553 FILLER_0_20_197
*554 FILLER_0_20_209
*555 FILLER_0_20_221
*556 FILLER_0_20_233
*557 FILLER_0_20_245
*558 FILLER_0_20_251
*559 FILLER_0_20_253
*560 FILLER_0_20_265
*561 FILLER_0_20_27
*562 FILLER_0_20_277
*563 FILLER_0_20_289
*564 FILLER_0_20_29
*565 FILLER_0_20_3
*566 FILLER_0_20_301
*567 FILLER_0_20_307
*568 FILLER_0_20_309
*569 FILLER_0_20_321
*570 FILLER_0_20_333
*571 FILLER_0_20_41
*572 FILLER_0_20_53
*573 FILLER_0_20_65
*574 FILLER_0_20_77
*575 FILLER_0_20_83
*576 FILLER_0_20_85
*577 FILLER_0_20_97
*578 FILLER_0_21_105
*579 FILLER_0_21_111
*580 FILLER_0_21_113
*581 FILLER_0_21_125
*582 FILLER_0_21_137
*583 FILLER_0_21_149
*584 FILLER_0_21_15
*585 FILLER_0_21_161
*586 FILLER_0_21_167
*587 FILLER_0_21_169
*588 FILLER_0_21_181
*589 FILLER_0_21_193
*590 FILLER_0_21_205
*591 FILLER_0_21_217
*592 FILLER_0_21_223
*593 FILLER_0_21_225
*594 FILLER_0_21_237
*595 FILLER_0_21_249
*596 FILLER_0_21_261
*597 FILLER_0_21_27
*598 FILLER_0_21_273
*599 FILLER_0_21_279
*600 FILLER_0_21_281
*601 FILLER_0_21_293
*602 FILLER_0_21_3
*603 FILLER_0_21_305
*604 FILLER_0_21_317
*605 FILLER_0_21_329
*606 FILLER_0_21_39
*607 FILLER_0_21_51
*608 FILLER_0_21_55
*609 FILLER_0_21_57
*610 FILLER_0_21_69
*611 FILLER_0_21_81
*612 FILLER_0_21_93
*613 FILLER_0_22_109
*614 FILLER_0_22_121
*615 FILLER_0_22_133
*616 FILLER_0_22_139
*617 FILLER_0_22_141
*618 FILLER_0_22_15
*619 FILLER_0_22_153
*620 FILLER_0_22_165
*621 FILLER_0_22_177
*622 FILLER_0_22_189
*623 FILLER_0_22_195
*624 FILLER_0_22_197
*625 FILLER_0_22_209
*626 FILLER_0_22_221
*627 FILLER_0_22_233
*628 FILLER_0_22_245
*629 FILLER_0_22_251
*630 FILLER_0_22_253
*631 FILLER_0_22_265
*632 FILLER_0_22_27
*633 FILLER_0_22_277
*634 FILLER_0_22_289
*635 FILLER_0_22_29
*636 FILLER_0_22_3
*637 FILLER_0_22_301
*638 FILLER_0_22_307
*639 FILLER_0_22_309
*640 FILLER_0_22_321
*641 FILLER_0_22_333
*642 FILLER_0_22_41
*643 FILLER_0_22_53
*644 FILLER_0_22_65
*645 FILLER_0_22_77
*646 FILLER_0_22_83
*647 FILLER_0_22_85
*648 FILLER_0_22_97
*649 FILLER_0_23_105
*650 FILLER_0_23_111
*651 FILLER_0_23_113
*652 FILLER_0_23_125
*653 FILLER_0_23_137
*654 FILLER_0_23_149
*655 FILLER_0_23_15
*656 FILLER_0_23_161
*657 FILLER_0_23_167
*658 FILLER_0_23_169
*659 FILLER_0_23_181
*660 FILLER_0_23_193
*661 FILLER_0_23_205
*662 FILLER_0_23_217
*663 FILLER_0_23_223
*664 FILLER_0_23_225
*665 FILLER_0_23_237
*666 FILLER_0_23_249
*667 FILLER_0_23_261
*668 FILLER_0_23_27
*669 FILLER_0_23_273
*670 FILLER_0_23_279
*671 FILLER_0_23_281
*672 FILLER_0_23_293
*673 FILLER_0_23_3
*674 FILLER_0_23_305
*675 FILLER_0_23_317
*676 FILLER_0_23_329
*677 FILLER_0_23_39
*678 FILLER_0_23_51
*679 FILLER_0_23_55
*680 FILLER_0_23_57
*681 FILLER_0_23_69
*682 FILLER_0_23_81
*683 FILLER_0_23_93
*684 FILLER_0_24_109
*685 FILLER_0_24_121
*686 FILLER_0_24_133
*687 FILLER_0_24_139
*688 FILLER_0_24_141
*689 FILLER_0_24_15
*690 FILLER_0_24_153
*691 FILLER_0_24_165
*692 FILLER_0_24_177
*693 FILLER_0_24_189
*694 FILLER_0_24_195
*695 FILLER_0_24_197
*696 FILLER_0_24_209
*697 FILLER_0_24_221
*698 FILLER_0_24_233
*699 FILLER_0_24_245
*700 FILLER_0_24_251
*701 FILLER_0_24_253
*702 FILLER_0_24_265
*703 FILLER_0_24_27
*704 FILLER_0_24_277
*705 FILLER_0_24_289
*706 FILLER_0_24_29
*707 FILLER_0_24_3
*708 FILLER_0_24_301
*709 FILLER_0_24_307
*710 FILLER_0_24_309
*711 FILLER_0_24_321
*712 FILLER_0_24_333
*713 FILLER_0_24_41
*714 FILLER_0_24_53
*715 FILLER_0_24_65
*716 FILLER_0_24_77
*717 FILLER_0_24_83
*718 FILLER_0_24_85
*719 FILLER_0_24_97
*720 FILLER_0_25_105
*721 FILLER_0_25_111
*722 FILLER_0_25_113
*723 FILLER_0_25_125
*724 FILLER_0_25_137
*725 FILLER_0_25_149
*726 FILLER_0_25_15
*727 FILLER_0_25_161
*728 FILLER_0_25_167
*729 FILLER_0_25_169
*730 FILLER_0_25_181
*731 FILLER_0_25_193
*732 FILLER_0_25_205
*733 FILLER_0_25_217
*734 FILLER_0_25_223
*735 FILLER_0_25_225
*736 FILLER_0_25_237
*737 FILLER_0_25_249
*738 FILLER_0_25_261
*739 FILLER_0_25_27
*740 FILLER_0_25_273
*741 FILLER_0_25_279
*742 FILLER_0_25_281
*743 FILLER_0_25_293
*744 FILLER_0_25_3
*745 FILLER_0_25_305
*746 FILLER_0_25_317
*747 FILLER_0_25_329
*748 FILLER_0_25_39
*749 FILLER_0_25_51
*750 FILLER_0_25_55
*751 FILLER_0_25_57
*752 FILLER_0_25_69
*753 FILLER_0_25_81
*754 FILLER_0_25_93
*755 FILLER_0_26_109
*756 FILLER_0_26_121
*757 FILLER_0_26_133
*758 FILLER_0_26_139
*759 FILLER_0_26_141
*760 FILLER_0_26_15
*761 FILLER_0_26_153
*762 FILLER_0_26_165
*763 FILLER_0_26_177
*764 FILLER_0_26_189
*765 FILLER_0_26_195
*766 FILLER_0_26_197
*767 FILLER_0_26_209
*768 FILLER_0_26_221
*769 FILLER_0_26_233
*770 FILLER_0_26_245
*771 FILLER_0_26_251
*772 FILLER_0_26_253
*773 FILLER_0_26_265
*774 FILLER_0_26_27
*775 FILLER_0_26_277
*776 FILLER_0_26_289
*777 FILLER_0_26_29
*778 FILLER_0_26_3
*779 FILLER_0_26_301
*780 FILLER_0_26_307
*781 FILLER_0_26_309
*782 FILLER_0_26_321
*783 FILLER_0_26_333
*784 FILLER_0_26_41
*785 FILLER_0_26_53
*786 FILLER_0_26_65
*787 FILLER_0_26_77
*788 FILLER_0_26_83
*789 FILLER_0_26_85
*790 FILLER_0_26_97
*791 FILLER_0_27_105
*792 FILLER_0_27_111
*793 FILLER_0_27_113
*794 FILLER_0_27_125
*795 FILLER_0_27_137
*796 FILLER_0_27_149
*797 FILLER_0_27_15
*798 FILLER_0_27_161
*799 FILLER_0_27_167
*800 FILLER_0_27_169
*801 FILLER_0_27_181
*802 FILLER_0_27_193
*803 FILLER_0_27_205
*804 FILLER_0_27_217
*805 FILLER_0_27_223
*806 FILLER_0_27_225
*807 FILLER_0_27_237
*808 FILLER_0_27_249
*809 FILLER_0_27_261
*810 FILLER_0_27_27
*811 FILLER_0_27_273
*812 FILLER_0_27_279
*813 FILLER_0_27_281
*814 FILLER_0_27_293
*815 FILLER_0_27_3
*816 FILLER_0_27_305
*817 FILLER_0_27_317
*818 FILLER_0_27_329
*819 FILLER_0_27_39
*820 FILLER_0_27_51
*821 FILLER_0_27_55
*822 FILLER_0_27_57
*823 FILLER_0_27_69
*824 FILLER_0_27_81
*825 FILLER_0_27_93
*826 FILLER_0_28_109
*827 FILLER_0_28_121
*828 FILLER_0_28_133
*829 FILLER_0_28_139
*830 FILLER_0_28_141
*831 FILLER_0_28_15
*832 FILLER_0_28_153
*833 FILLER_0_28_165
*834 FILLER_0_28_177
*835 FILLER_0_28_189
*836 FILLER_0_28_195
*837 FILLER_0_28_197
*838 FILLER_0_28_209
*839 FILLER_0_28_221
*840 FILLER_0_28_233
*841 FILLER_0_28_245
*842 FILLER_0_28_251
*843 FILLER_0_28_253
*844 FILLER_0_28_265
*845 FILLER_0_28_27
*846 FILLER_0_28_277
*847 FILLER_0_28_289
*848 FILLER_0_28_29
*849 FILLER_0_28_3
*850 FILLER_0_28_301
*851 FILLER_0_28_307
*852 FILLER_0_28_309
*853 FILLER_0_28_321
*854 FILLER_0_28_333
*855 FILLER_0_28_41
*856 FILLER_0_28_53
*857 FILLER_0_28_65
*858 FILLER_0_28_77
*859 FILLER_0_28_83
*860 FILLER_0_28_85
*861 FILLER_0_28_97
*862 FILLER_0_29_105
*863 FILLER_0_29_111
*864 FILLER_0_29_113
*865 FILLER_0_29_125
*866 FILLER_0_29_137
*867 FILLER_0_29_149
*868 FILLER_0_29_15
*869 FILLER_0_29_161
*870 FILLER_0_29_167
*871 FILLER_0_29_169
*872 FILLER_0_29_181
*873 FILLER_0_29_193
*874 FILLER_0_29_205
*875 FILLER_0_29_217
*876 FILLER_0_29_223
*877 FILLER_0_29_225
*878 FILLER_0_29_237
*879 FILLER_0_29_249
*880 FILLER_0_29_261
*881 FILLER_0_29_27
*882 FILLER_0_29_273
*883 FILLER_0_29_279
*884 FILLER_0_29_281
*885 FILLER_0_29_293
*886 FILLER_0_29_3
*887 FILLER_0_29_305
*888 FILLER_0_29_317
*889 FILLER_0_29_329
*890 FILLER_0_29_39
*891 FILLER_0_29_51
*892 FILLER_0_29_55
*893 FILLER_0_29_57
*894 FILLER_0_29_69
*895 FILLER_0_29_81
*896 FILLER_0_29_93
*897 FILLER_0_2_109
*898 FILLER_0_2_121
*899 FILLER_0_2_133
*900 FILLER_0_2_139
*901 FILLER_0_2_141
*902 FILLER_0_2_15
*903 FILLER_0_2_153
*904 FILLER_0_2_165
*905 FILLER_0_2_177
*906 FILLER_0_2_189
*907 FILLER_0_2_195
*908 FILLER_0_2_197
*909 FILLER_0_2_209
*910 FILLER_0_2_221
*911 FILLER_0_2_233
*912 FILLER_0_2_245
*913 FILLER_0_2_251
*914 FILLER_0_2_253
*915 FILLER_0_2_265
*916 FILLER_0_2_27
*917 FILLER_0_2_277
*918 FILLER_0_2_289
*919 FILLER_0_2_29
*920 FILLER_0_2_3
*921 FILLER_0_2_301
*922 FILLER_0_2_307
*923 FILLER_0_2_309
*924 FILLER_0_2_321
*925 FILLER_0_2_333
*926 FILLER_0_2_41
*927 FILLER_0_2_53
*928 FILLER_0_2_65
*929 FILLER_0_2_77
*930 FILLER_0_2_83
*931 FILLER_0_2_85
*932 FILLER_0_2_97
*933 FILLER_0_30_109
*934 FILLER_0_30_121
*935 FILLER_0_30_133
*936 FILLER_0_30_139
*937 FILLER_0_30_141
*938 FILLER_0_30_15
*939 FILLER_0_30_153
*940 FILLER_0_30_165
*941 FILLER_0_30_177
*942 FILLER_0_30_189
*943 FILLER_0_30_195
*944 FILLER_0_30_197
*945 FILLER_0_30_209
*946 FILLER_0_30_221
*947 FILLER_0_30_233
*948 FILLER_0_30_245
*949 FILLER_0_30_251
*950 FILLER_0_30_253
*951 FILLER_0_30_265
*952 FILLER_0_30_27
*953 FILLER_0_30_277
*954 FILLER_0_30_289
*955 FILLER_0_30_29
*956 FILLER_0_30_3
*957 FILLER_0_30_301
*958 FILLER_0_30_307
*959 FILLER_0_30_309
*960 FILLER_0_30_321
*961 FILLER_0_30_333
*962 FILLER_0_30_41
*963 FILLER_0_30_53
*964 FILLER_0_30_65
*965 FILLER_0_30_77
*966 FILLER_0_30_83
*967 FILLER_0_30_85
*968 FILLER_0_30_97
*969 FILLER_0_31_105
*970 FILLER_0_31_111
*971 FILLER_0_31_113
*972 FILLER_0_31_125
*973 FILLER_0_31_137
*974 FILLER_0_31_149
*975 FILLER_0_31_15
*976 FILLER_0_31_161
*977 FILLER_0_31_167
*978 FILLER_0_31_169
*979 FILLER_0_31_181
*980 FILLER_0_31_193
*981 FILLER_0_31_205
*982 FILLER_0_31_217
*983 FILLER_0_31_223
*984 FILLER_0_31_225
*985 FILLER_0_31_237
*986 FILLER_0_31_249
*987 FILLER_0_31_261
*988 FILLER_0_31_27
*989 FILLER_0_31_273
*990 FILLER_0_31_279
*991 FILLER_0_31_281
*992 FILLER_0_31_293
*993 FILLER_0_31_3
*994 FILLER_0_31_305
*995 FILLER_0_31_317
*996 FILLER_0_31_329
*997 FILLER_0_31_39
*998 FILLER_0_31_51
*999 FILLER_0_31_55
*1000 FILLER_0_31_57
*1001 FILLER_0_31_69
*1002 FILLER_0_31_81
*1003 FILLER_0_31_93
*1004 FILLER_0_32_109
*1005 FILLER_0_32_121
*1006 FILLER_0_32_133
*1007 FILLER_0_32_139
*1008 FILLER_0_32_141
*1009 FILLER_0_32_15
*1010 FILLER_0_32_153
*1011 FILLER_0_32_165
*1012 FILLER_0_32_177
*1013 FILLER_0_32_189
*1014 FILLER_0_32_195
*1015 FILLER_0_32_197
*1016 FILLER_0_32_209
*1017 FILLER_0_32_221
*1018 FILLER_0_32_233
*1019 FILLER_0_32_245
*1020 FILLER_0_32_251
*1021 FILLER_0_32_253
*1022 FILLER_0_32_265
*1023 FILLER_0_32_27
*1024 FILLER_0_32_277
*1025 FILLER_0_32_289
*1026 FILLER_0_32_29
*1027 FILLER_0_32_3
*1028 FILLER_0_32_301
*1029 FILLER_0_32_307
*1030 FILLER_0_32_309
*1031 FILLER_0_32_321
*1032 FILLER_0_32_333
*1033 FILLER_0_32_41
*1034 FILLER_0_32_53
*1035 FILLER_0_32_65
*1036 FILLER_0_32_77
*1037 FILLER_0_32_83
*1038 FILLER_0_32_85
*1039 FILLER_0_32_97
*1040 FILLER_0_33_105
*1041 FILLER_0_33_111
*1042 FILLER_0_33_113
*1043 FILLER_0_33_125
*1044 FILLER_0_33_137
*1045 FILLER_0_33_149
*1046 FILLER_0_33_15
*1047 FILLER_0_33_161
*1048 FILLER_0_33_167
*1049 FILLER_0_33_169
*1050 FILLER_0_33_181
*1051 FILLER_0_33_193
*1052 FILLER_0_33_205
*1053 FILLER_0_33_217
*1054 FILLER_0_33_223
*1055 FILLER_0_33_225
*1056 FILLER_0_33_237
*1057 FILLER_0_33_249
*1058 FILLER_0_33_261
*1059 FILLER_0_33_27
*1060 FILLER_0_33_273
*1061 FILLER_0_33_279
*1062 FILLER_0_33_281
*1063 FILLER_0_33_293
*1064 FILLER_0_33_3
*1065 FILLER_0_33_305
*1066 FILLER_0_33_317
*1067 FILLER_0_33_329
*1068 FILLER_0_33_39
*1069 FILLER_0_33_51
*1070 FILLER_0_33_55
*1071 FILLER_0_33_57
*1072 FILLER_0_33_69
*1073 FILLER_0_33_81
*1074 FILLER_0_33_93
*1075 FILLER_0_34_109
*1076 FILLER_0_34_121
*1077 FILLER_0_34_133
*1078 FILLER_0_34_139
*1079 FILLER_0_34_141
*1080 FILLER_0_34_145
*1081 FILLER_0_34_15
*1082 FILLER_0_34_152
*1083 FILLER_0_34_166
*1084 FILLER_0_34_178
*1085 FILLER_0_34_190
*1086 FILLER_0_34_197
*1087 FILLER_0_34_205
*1088 FILLER_0_34_211
*1089 FILLER_0_34_219
*1090 FILLER_0_34_233
*1091 FILLER_0_34_245
*1092 FILLER_0_34_251
*1093 FILLER_0_34_253
*1094 FILLER_0_34_265
*1095 FILLER_0_34_27
*1096 FILLER_0_34_277
*1097 FILLER_0_34_289
*1098 FILLER_0_34_29
*1099 FILLER_0_34_3
*1100 FILLER_0_34_301
*1101 FILLER_0_34_307
*1102 FILLER_0_34_309
*1103 FILLER_0_34_321
*1104 FILLER_0_34_333
*1105 FILLER_0_34_41
*1106 FILLER_0_34_53
*1107 FILLER_0_34_65
*1108 FILLER_0_34_77
*1109 FILLER_0_34_83
*1110 FILLER_0_34_85
*1111 FILLER_0_34_97
*1112 FILLER_0_35_105
*1113 FILLER_0_35_111
*1114 FILLER_0_35_113
*1115 FILLER_0_35_125
*1116 FILLER_0_35_137
*1117 FILLER_0_35_141
*1118 FILLER_0_35_15
*1119 FILLER_0_35_185
*1120 FILLER_0_35_191
*1121 FILLER_0_35_208
*1122 FILLER_0_35_267
*1123 FILLER_0_35_27
*1124 FILLER_0_35_278
*1125 FILLER_0_35_281
*1126 FILLER_0_35_293
*1127 FILLER_0_35_3
*1128 FILLER_0_35_305
*1129 FILLER_0_35_317
*1130 FILLER_0_35_329
*1131 FILLER_0_35_39
*1132 FILLER_0_35_51
*1133 FILLER_0_35_55
*1134 FILLER_0_35_57
*1135 FILLER_0_35_69
*1136 FILLER_0_35_81
*1137 FILLER_0_35_93
*1138 FILLER_0_36_109
*1139 FILLER_0_36_121
*1140 FILLER_0_36_141
*1141 FILLER_0_36_15
*1142 FILLER_0_36_173
*1143 FILLER_0_36_181
*1144 FILLER_0_36_256
*1145 FILLER_0_36_27
*1146 FILLER_0_36_29
*1147 FILLER_0_36_290
*1148 FILLER_0_36_3
*1149 FILLER_0_36_304
*1150 FILLER_0_36_325
*1151 FILLER_0_36_333
*1152 FILLER_0_36_41
*1153 FILLER_0_36_53
*1154 FILLER_0_36_65
*1155 FILLER_0_36_77
*1156 FILLER_0_36_83
*1157 FILLER_0_36_85
*1158 FILLER_0_36_97
*1159 FILLER_0_37_105
*1160 FILLER_0_37_111
*1161 FILLER_0_37_113
*1162 FILLER_0_37_125
*1163 FILLER_0_37_15
*1164 FILLER_0_37_165
*1165 FILLER_0_37_173
*1166 FILLER_0_37_178
*1167 FILLER_0_37_182
*1168 FILLER_0_37_195
*1169 FILLER_0_37_225
*1170 FILLER_0_37_258
*1171 FILLER_0_37_27
*1172 FILLER_0_37_3
*1173 FILLER_0_37_329
*1174 FILLER_0_37_39
*1175 FILLER_0_37_51
*1176 FILLER_0_37_55
*1177 FILLER_0_37_57
*1178 FILLER_0_37_69
*1179 FILLER_0_37_81
*1180 FILLER_0_37_91
*1181 FILLER_0_38_10
*1182 FILLER_0_38_102
*1183 FILLER_0_38_106
*1184 FILLER_0_38_110
*1185 FILLER_0_38_113
*1186 FILLER_0_38_118
*1187 FILLER_0_38_122
*1188 FILLER_0_38_126
*1189 FILLER_0_38_138
*1190 FILLER_0_38_14
*1191 FILLER_0_38_141
*1192 FILLER_0_38_164
*1193 FILLER_0_38_169
*1194 FILLER_0_38_18
*1195 FILLER_0_38_181
*1196 FILLER_0_38_193
*1197 FILLER_0_38_203
*1198 FILLER_0_38_22
*1199 FILLER_0_38_242
*1200 FILLER_0_38_256
*1201 FILLER_0_38_306
*1202 FILLER_0_38_312
*1203 FILLER_0_38_318
*1204 FILLER_0_38_32
*1205 FILLER_0_38_330
*1206 FILLER_0_38_334
*1207 FILLER_0_38_38
*1208 FILLER_0_38_42
*1209 FILLER_0_38_46
*1210 FILLER_0_38_50
*1211 FILLER_0_38_54
*1212 FILLER_0_38_57
*1213 FILLER_0_38_6
*1214 FILLER_0_38_62
*1215 FILLER_0_38_66
*1216 FILLER_0_38_70
*1217 FILLER_0_38_74
*1218 FILLER_0_38_78
*1219 FILLER_0_38_85
*1220 FILLER_0_38_97
*1221 FILLER_0_3_105
*1222 FILLER_0_3_111
*1223 FILLER_0_3_113
*1224 FILLER_0_3_125
*1225 FILLER_0_3_137
*1226 FILLER_0_3_149
*1227 FILLER_0_3_15
*1228 FILLER_0_3_161
*1229 FILLER_0_3_167
*1230 FILLER_0_3_169
*1231 FILLER_0_3_181
*1232 FILLER_0_3_193
*1233 FILLER_0_3_205
*1234 FILLER_0_3_217
*1235 FILLER_0_3_223
*1236 FILLER_0_3_225
*1237 FILLER_0_3_237
*1238 FILLER_0_3_249
*1239 FILLER_0_3_261
*1240 FILLER_0_3_27
*1241 FILLER_0_3_273
*1242 FILLER_0_3_279
*1243 FILLER_0_3_281
*1244 FILLER_0_3_293
*1245 FILLER_0_3_3
*1246 FILLER_0_3_305
*1247 FILLER_0_3_317
*1248 FILLER_0_3_329
*1249 FILLER_0_3_39
*1250 FILLER_0_3_51
*1251 FILLER_0_3_55
*1252 FILLER_0_3_57
*1253 FILLER_0_3_69
*1254 FILLER_0_3_81
*1255 FILLER_0_3_93
*1256 FILLER_0_4_109
*1257 FILLER_0_4_121
*1258 FILLER_0_4_133
*1259 FILLER_0_4_139
*1260 FILLER_0_4_141
*1261 FILLER_0_4_15
*1262 FILLER_0_4_153
*1263 FILLER_0_4_165
*1264 FILLER_0_4_177
*1265 FILLER_0_4_189
*1266 FILLER_0_4_195
*1267 FILLER_0_4_197
*1268 FILLER_0_4_209
*1269 FILLER_0_4_221
*1270 FILLER_0_4_233
*1271 FILLER_0_4_245
*1272 FILLER_0_4_251
*1273 FILLER_0_4_253
*1274 FILLER_0_4_265
*1275 FILLER_0_4_27
*1276 FILLER_0_4_277
*1277 FILLER_0_4_289
*1278 FILLER_0_4_29
*1279 FILLER_0_4_3
*1280 FILLER_0_4_301
*1281 FILLER_0_4_307
*1282 FILLER_0_4_309
*1283 FILLER_0_4_321
*1284 FILLER_0_4_333
*1285 FILLER_0_4_41
*1286 FILLER_0_4_53
*1287 FILLER_0_4_65
*1288 FILLER_0_4_77
*1289 FILLER_0_4_83
*1290 FILLER_0_4_85
*1291 FILLER_0_4_97
*1292 FILLER_0_5_105
*1293 FILLER_0_5_111
*1294 FILLER_0_5_113
*1295 FILLER_0_5_125
*1296 FILLER_0_5_137
*1297 FILLER_0_5_149
*1298 FILLER_0_5_15
*1299 FILLER_0_5_161
*1300 FILLER_0_5_167
*1301 FILLER_0_5_169
*1302 FILLER_0_5_181
*1303 FILLER_0_5_193
*1304 FILLER_0_5_205
*1305 FILLER_0_5_217
*1306 FILLER_0_5_223
*1307 FILLER_0_5_225
*1308 FILLER_0_5_237
*1309 FILLER_0_5_249
*1310 FILLER_0_5_261
*1311 FILLER_0_5_27
*1312 FILLER_0_5_273
*1313 FILLER_0_5_279
*1314 FILLER_0_5_281
*1315 FILLER_0_5_293
*1316 FILLER_0_5_3
*1317 FILLER_0_5_305
*1318 FILLER_0_5_317
*1319 FILLER_0_5_329
*1320 FILLER_0_5_39
*1321 FILLER_0_5_51
*1322 FILLER_0_5_55
*1323 FILLER_0_5_57
*1324 FILLER_0_5_69
*1325 FILLER_0_5_81
*1326 FILLER_0_5_93
*1327 FILLER_0_6_109
*1328 FILLER_0_6_121
*1329 FILLER_0_6_133
*1330 FILLER_0_6_139
*1331 FILLER_0_6_141
*1332 FILLER_0_6_15
*1333 FILLER_0_6_153
*1334 FILLER_0_6_165
*1335 FILLER_0_6_177
*1336 FILLER_0_6_189
*1337 FILLER_0_6_195
*1338 FILLER_0_6_197
*1339 FILLER_0_6_209
*1340 FILLER_0_6_221
*1341 FILLER_0_6_233
*1342 FILLER_0_6_245
*1343 FILLER_0_6_251
*1344 FILLER_0_6_253
*1345 FILLER_0_6_265
*1346 FILLER_0_6_27
*1347 FILLER_0_6_277
*1348 FILLER_0_6_289
*1349 FILLER_0_6_29
*1350 FILLER_0_6_3
*1351 FILLER_0_6_301
*1352 FILLER_0_6_307
*1353 FILLER_0_6_309
*1354 FILLER_0_6_321
*1355 FILLER_0_6_333
*1356 FILLER_0_6_41
*1357 FILLER_0_6_53
*1358 FILLER_0_6_65
*1359 FILLER_0_6_77
*1360 FILLER_0_6_83
*1361 FILLER_0_6_85
*1362 FILLER_0_6_97
*1363 FILLER_0_7_105
*1364 FILLER_0_7_111
*1365 FILLER_0_7_113
*1366 FILLER_0_7_125
*1367 FILLER_0_7_137
*1368 FILLER_0_7_149
*1369 FILLER_0_7_15
*1370 FILLER_0_7_161
*1371 FILLER_0_7_167
*1372 FILLER_0_7_169
*1373 FILLER_0_7_181
*1374 FILLER_0_7_193
*1375 FILLER_0_7_205
*1376 FILLER_0_7_217
*1377 FILLER_0_7_223
*1378 FILLER_0_7_225
*1379 FILLER_0_7_237
*1380 FILLER_0_7_249
*1381 FILLER_0_7_261
*1382 FILLER_0_7_27
*1383 FILLER_0_7_273
*1384 FILLER_0_7_279
*1385 FILLER_0_7_281
*1386 FILLER_0_7_293
*1387 FILLER_0_7_3
*1388 FILLER_0_7_305
*1389 FILLER_0_7_317
*1390 FILLER_0_7_329
*1391 FILLER_0_7_39
*1392 FILLER_0_7_51
*1393 FILLER_0_7_55
*1394 FILLER_0_7_57
*1395 FILLER_0_7_69
*1396 FILLER_0_7_81
*1397 FILLER_0_7_93
*1398 FILLER_0_8_109
*1399 FILLER_0_8_121
*1400 FILLER_0_8_133
*1401 FILLER_0_8_139
*1402 FILLER_0_8_141
*1403 FILLER_0_8_15
*1404 FILLER_0_8_153
*1405 FILLER_0_8_165
*1406 FILLER_0_8_177
*1407 FILLER_0_8_189
*1408 FILLER_0_8_195
*1409 FILLER_0_8_197
*1410 FILLER_0_8_209
*1411 FILLER_0_8_221
*1412 FILLER_0_8_233
*1413 FILLER_0_8_245
*1414 FILLER_0_8_251
*1415 FILLER_0_8_253
*1416 FILLER_0_8_265
*1417 FILLER_0_8_27
*1418 FILLER_0_8_277
*1419 FILLER_0_8_289
*1420 FILLER_0_8_29
*1421 FILLER_0_8_3
*1422 FILLER_0_8_301
*1423 FILLER_0_8_307
*1424 FILLER_0_8_309
*1425 FILLER_0_8_321
*1426 FILLER_0_8_333
*1427 FILLER_0_8_41
*1428 FILLER_0_8_53
*1429 FILLER_0_8_65
*1430 FILLER_0_8_77
*1431 FILLER_0_8_83
*1432 FILLER_0_8_85
*1433 FILLER_0_8_97
*1434 FILLER_0_9_105
*1435 FILLER_0_9_111
*1436 FILLER_0_9_113
*1437 FILLER_0_9_125
*1438 FILLER_0_9_137
*1439 FILLER_0_9_149
*1440 FILLER_0_9_15
*1441 FILLER_0_9_161
*1442 FILLER_0_9_167
*1443 FILLER_0_9_169
*1444 FILLER_0_9_181
*1445 FILLER_0_9_193
*1446 FILLER_0_9_205
*1447 FILLER_0_9_217
*1448 FILLER_0_9_223
*1449 FILLER_0_9_225
*1450 FILLER_0_9_237
*1451 FILLER_0_9_249
*1452 FILLER_0_9_261
*1453 FILLER_0_9_27
*1454 FILLER_0_9_273
*1455 FILLER_0_9_279
*1456 FILLER_0_9_281
*1457 FILLER_0_9_293
*1458 FILLER_0_9_3
*1459 FILLER_0_9_305
*1460 FILLER_0_9_317
*1461 FILLER_0_9_329
*1462 FILLER_0_9_39
*1463 FILLER_0_9_51
*1464 FILLER_0_9_55
*1465 FILLER_0_9_57
*1466 FILLER_0_9_69
*1467 FILLER_0_9_81
*1468 FILLER_0_9_93
*1469 PHY_EDGE_ROW_0_Left_39
*1470 PHY_EDGE_ROW_0_Right_0
*1471 PHY_EDGE_ROW_10_Left_49
*1472 PHY_EDGE_ROW_10_Right_10
*1473 PHY_EDGE_ROW_11_Left_50
*1474 PHY_EDGE_ROW_11_Right_11
*1475 PHY_EDGE_ROW_12_Left_51
*1476 PHY_EDGE_ROW_12_Right_12