*SPEF "ieee 1481-1999"
*DESIGN "tt_um_multiplier_mbm"
*DATE "15:52:13 Thursday May 30, 2024"
*VENDOR "The OpenROAD Project"
*PROGRAM "OpenROAD"
*VERSION "da0053d7b0014ab9c87ea148875ff6c2a0f9b658"
*DESIGN_FLOW "NAME_SCOPE LOCAL" "PIN_CAP NONE"
*DIVIDER /
*DELIMITER :
*BUS_DELIMITER []
*T_UNIT 1 NS
*C_UNIT 1 PF
*R_UNIT 1 OHM
*L_UNIT 1 HENRY

*NAME_MAP
*3 clk
*4 ena
*5 rst_n
*6 ui_in[0]
*7 ui_in[1]
*8 ui_in[2]
*9 ui_in[3]
*10 ui_in[4]
*11 ui_in[5]
*12 ui_in[6]
*13 ui_in[7]
*14 uio_in[0]
*15 uio_in[1]
*16 uio_in[2]
*17 uio_in[3]
*18 uio_in[4]
*19 uio_in[5]
*20 uio_in[6]
*21 uio_in[7]
*22 net18
*23 net19
*24 net20
*25 net21
*26 net22
*27 net23
*28 net24
*29 net25
*30 uio_out[0]
*31 uio_out[1]
*32 uio_out[2]
*33 uio_out[3]
*34 uio_out[4]
*35 uio_out[5]
*36 uio_out[6]
*37 uio_out[7]
*38 uo_out[0]
*39 uo_out[1]
*40 uo_out[2]
*41 uo_out[3]
*42 uo_out[4]
*43 uo_out[5]
*44 uo_out[6]
*45 uo_out[7]
*46 _000_
*47 _001_
*48 _002_
*49 _003_
*50 _004_
*51 _005_
*52 _006_
*53 _007_
*54 _008_
*55 _009_
*56 _010_
*57 _011_
*58 _012_
*59 _013_
*60 _014_
*61 _015_
*62 _016_
*63 _017_
*64 _018_
*65 _019_
*66 _020_
*67 _021_
*68 _022_
*69 _023_
*70 _024_
*71 _025_
*72 _026_
*73 _027_
*74 _028_
*75 _029_
*76 _030_
*77 _031_
*78 _032_
*79 _033_
*80 _034_
*81 _035_
*82 _036_
*83 _037_
*84 _038_
*85 _039_
*86 _040_
*87 _041_
*88 _042_
*89 _043_
*90 _044_
*91 _045_
*92 _046_
*93 _047_
*94 _048_
*95 _049_
*96 _050_
*97 _051_
*98 _052_
*99 _053_
*100 _054_
*101 _055_
*102 _056_
*103 _057_
*104 _058_
*105 _059_
*106 _060_
*107 _061_
*108 _062_
*109 _063_
*110 _064_
*111 _065_
*112 _066_
*113 _067_
*114 _068_
*115 _069_
*116 _070_
*117 _071_
*118 _072_
*119 _073_
*120 _074_
*121 _075_
*122 _076_
*123 _077_
*124 _078_
*125 _079_
*126 _080_
*127 _081_
*128 _082_
*129 _083_
*130 _084_
*131 _085_
*132 _086_
*133 _087_
*134 _088_
*135 _089_
*136 _090_
*137 _091_
*138 _092_
*139 _093_
*140 _094_
*141 _095_
*142 _096_
*143 _097_
*144 _098_
*145 _099_
*146 _100_
*147 _101_
*148 _102_
*149 _103_
*150 _104_
*151 _105_
*152 _106_
*153 _107_
*154 _108_
*155 _109_
*156 _110_
*157 _111_
*158 _112_
*159 _113_
*160 _114_
*161 _115_
*162 _116_
*163 _117_
*164 _118_
*165 _119_
*166 _120_
*167 _121_
*168 _122_
*169 _123_
*170 _124_
*171 _125_
*172 _126_
*173 _127_
*174 _128_
*175 _129_
*176 _130_
*177 _131_
*178 _132_
*179 _133_
*180 _134_
*181 _135_
*182 _136_
*183 _137_
*184 _138_
*185 _139_
*186 _140_
*187 _141_
*188 _142_
*189 _143_
*190 _144_
*191 _145_
*192 _146_
*193 _147_
*194 _148_
*195 _149_
*196 _150_
*197 _151_
*198 _152_
*199 _153_
*200 _154_
*201 _155_
*202 _156_
*203 _157_
*204 _158_
*205 _159_
*206 _160_
*207 _161_
*208 _162_
*209 _163_
*210 _164_
*211 _165_
*212 _166_
*213 _167_
*214 _168_
*215 _169_
*216 _170_
*217 _171_
*218 _172_
*219 _173_
*220 _174_
*221 _175_
*222 _176_
*223 _177_
*224 _178_
*225 _179_
*226 _180_
*227 _181_
*228 _182_
*229 _183_
*230 _184_
*231 _185_
*232 _186_
*233 _187_
*234 _188_
*235 _189_
*236 _190_
*237 _191_
*238 _192_
*239 _193_
*240 _194_
*241 _195_
*242 _196_
*243 _197_
*244 _198_
*245 _199_
*246 _200_
*247 _201_
*248 _202_
*249 _203_
*250 _204_
*251 _205_
*252 _206_
*253 _207_
*254 _208_
*255 _209_
*256 _210_
*257 _211_
*258 _212_
*259 _213_
*260 _214_
*261 _215_
*262 _216_
*263 _217_
*264 _218_
*265 _219_
*266 _220_
*267 _221_
*268 _222_
*269 _223_
*270 _224_
*271 _225_
*272 _226_
*273 _227_
*274 _228_
*275 _229_
*276 _230_
*277 _231_
*278 _232_
*279 _233_
*280 _234_
*281 _235_
*282 _236_
*283 _237_
*284 _238_
*285 _239_
*286 _240_
*287 _241_
*288 _242_
*289 _243_
*290 _244_
*291 _245_
*292 _246_
*293 _247_
*294 _248_
*295 _249_
*296 _250_
*297 _251_
*298 _252_
*299 _253_
*300 _254_
*301 _255_
*302 _256_
*303 _257_
*304 _258_
*305 _259_
*306 _260_
*307 _261_
*308 _262_
*309 _263_
*310 _264_
*311 _265_
*312 _266_
*313 _267_
*314 _268_
*315 _269_
*316 _270_
*317 _271_
*318 _272_
*319 _273_
*320 _274_
*321 _275_
*322 _276_
*323 _277_
*324 _278_
*325 _279_
*326 _280_
*327 _281_
*328 _282_
*329 _283_
*330 _284_
*331 _285_
*332 _286_
*333 _287_
*334 _288_
*335 _289_
*336 _290_
*337 _291_
*338 _292_
*339 _293_
*340 _294_
*341 _295_
*342 _296_
*343 _297_
*344 _298_
*345 _299_
*346 _300_
*347 _301_
*348 _302_
*349 _303_
*350 _304_
*351 _305_
*352 _306_
*353 _307_
*354 _308_
*355 _309_
*356 _310_
*357 _311_
*358 _312_
*359 _313_
*360 _314_
*361 _315_
*362 _316_
*363 _317_
*364 _318_
*365 _319_
*366 _320_
*367 _321_
*368 _322_
*369 _323_
*370 _324_
*371 _325_
*372 _326_
*373 _327_
*374 _328_
*375 _329_
*376 _330_
*377 _331_
*378 _332_
*379 _333_
*380 _334_
*381 _335_
*382 _336_
*383 _337_
*384 _338_
*385 _339_
*386 _340_
*387 _341_
*388 _342_
*389 _343_
*390 _344_
*391 _345_
*392 _346_
*393 _347_
*394 _348_
*395 _349_
*396 _350_
*397 _351_
*398 _352_
*399 _353_
*400 _354_
*401 cla1\.p\[0\]
*402 cla1\.sum\[0\]
*403 cla1\.sum\[10\]
*404 cla1\.sum\[11\]
*405 cla1\.sum\[12\]
*406 cla1\.sum\[13\]
*407 cla1\.sum\[14\]
*408 cla1\.sum\[15\]
*409 cla1\.sum\[1\]
*410 cla1\.sum\[3\]
*411 cla1\.sum\[4\]
*412 cla1\.sum\[5\]
*413 cla1\.sum\[6\]
*414 cla1\.sum\[7\]
*415 cla1\.sum\[8\]
*416 cla1\.sum\[9\]
*417 clknet_0_clk
*418 clknet_2_0__leaf_clk
*419 clknet_2_1__leaf_clk
*420 clknet_2_2__leaf_clk
*421 clknet_2_3__leaf_clk
*422 cod1\.a
*423 cod1\.b
*424 cod1\.dec\.dout\[2\]
*425 cod1\.dec\.dout\[4\]
*426 cod1\.dec\.dout\[6\]
*427 cod2\.a
*428 cod2\.b
*429 cod2\.dec\.dout\[1\]
*430 cod2\.dec\.dout\[2\]
*431 cod2\.dec\.dout\[3\]
*432 cod2\.dec\.dout\[4\]
*433 cod2\.dec\.dout\[5\]
*434 cod2\.dec\.dout\[6\]
*435 cod3\.a
*436 cod3\.b
*437 cod3\.dec\.dout\[1\]
*438 cod3\.dec\.dout\[2\]
*439 cod3\.dec\.dout\[3\]
*440 cod3\.dec\.dout\[4\]
*441 cod3\.dec\.dout\[5\]
*442 cod3\.dec\.dout\[6\]
*443 cod4\.a
*444 cod4\.b
*445 cod4\.dec\.dout\[1\]
*446 cod4\.dec\.dout\[2\]
*447 cod4\.dec\.dout\[3\]
*448 cod4\.dec\.dout\[4\]
*449 cod4\.dec\.dout\[5\]
*450 cod4\.dec\.dout\[6\]
*451 lat1\.q\[0\]
*452 lat1\.q\[1\]
*453 lat1\.q\[2\]
*454 lat1\.q\[3\]
*455 lat1\.q\[4\]
*456 lat1\.q\[5\]
*457 lat1\.q\[6\]
*458 lat1\.q\[7\]
*459 net1
*460 net10
*461 net11
*462 net12
*463 net13
*464 net14
*465 net15
*466 net16
*467 net17
*468 net2
*469 net3
*470 net4
*471 net5
*472 net6
*473 net7
*474 net8
*475 net9
*476 FILLER_0_0_109
*477 FILLER_0_0_113
*478 FILLER_0_0_125
*479 FILLER_0_0_137
*480 FILLER_0_0_141
*481 FILLER_0_0_15
*482 FILLER_0_0_153
*483 FILLER_0_0_165
*484 FILLER_0_0_169
*485 FILLER_0_0_181
*486 FILLER_0_0_193
*487 FILLER_0_0_197
*488 FILLER_0_0_209
*489 FILLER_0_0_221
*490 FILLER_0_0_225
*491 FILLER_0_0_237
*492 FILLER_0_0_249
*493 FILLER_0_0_253
*494 FILLER_0_0_265
*495 FILLER_0_0_27
*496 FILLER_0_0_277
*497 FILLER_0_0_281
*498 FILLER_0_0_29
*499 FILLER_0_0_293
*500 FILLER_0_0_3
*501 FILLER_0_0_305
*502 FILLER_0_0_309
*503 FILLER_0_0_321
*504 FILLER_0_0_333
*505 FILLER_0_0_41
*506 FILLER_0_0_53
*507 FILLER_0_0_57
*508 FILLER_0_0_69
*509 FILLER_0_0_81
*510 FILLER_0_0_85
*511 FILLER_0_0_97
*512 FILLER_0_10_109
*513 FILLER_0_10_121
*514 FILLER_0_10_133
*515 FILLER_0_10_139
*516 FILLER_0_10_141
*517 FILLER_0_10_15
*518 FILLER_0_10_153
*519 FILLER_0_10_165
*520 FILLER_0_10_177
*521 FILLER_0_10_189
*522 FILLER_0_10_195
*523 FILLER_0_10_197
*524 FILLER_0_10_209
*525 FILLER_0_10_221
*526 FILLER_0_10_233
*527 FILLER_0_10_245
*528 FILLER_0_10_251
*529 FILLER_0_10_253
*530 FILLER_0_10_265
*531 FILLER_0_10_27
*532 FILLER_0_10_277
*533 FILLER_0_10_289
*534 FILLER_0_10_29
*535 FILLER_0_10_3
*536 FILLER_0_10_301
*537 FILLER_0_10_307
*538 FILLER_0_10_309
*539 FILLER_0_10_321
*540 FILLER_0_10_333
*541 FILLER_0_10_41
*542 FILLER_0_10_53
*543 FILLER_0_10_65
*544 FILLER_0_10_77
*545 FILLER_0_10_83
*546 FILLER_0_10_85
*547 FILLER_0_10_97
*548 FILLER_0_11_105
*549 FILLER_0_11_111
*550 FILLER_0_11_113
*551 FILLER_0_11_125
*552 FILLER_0_11_137
*553 FILLER_0_11_149
*554 FILLER_0_11_15
*555 FILLER_0_11_161
*556 FILLER_0_11_167
*557 FILLER_0_11_169
*558 FILLER_0_11_181
*559 FILLER_0_11_193
*560 FILLER_0_11_205
*561 FILLER_0_11_217
*562 FILLER_0_11_223
*563 FILLER_0_11_225
*564 FILLER_0_11_237
*565 FILLER_0_11_249
*566 FILLER_0_11_261
*567 FILLER_0_11_27
*568 FILLER_0_11_273
*569 FILLER_0_11_279
*570 FILLER_0_11_281
*571 FILLER_0_11_293
*572 FILLER_0_11_3
*573 FILLER_0_11_305
*574 FILLER_0_11_317
*575 FILLER_0_11_329
*576 FILLER_0_11_39
*577 FILLER_0_11_51
*578 FILLER_0_11_55
*579 FILLER_0_11_57
*580 FILLER_0_11_69
*581 FILLER_0_11_81
*582 FILLER_0_11_93
*583 FILLER_0_12_109
*584 FILLER_0_12_121
*585 FILLER_0_12_133
*586 FILLER_0_12_139
*587 FILLER_0_12_141
*588 FILLER_0_12_15
*589 FILLER_0_12_153
*590 FILLER_0_12_165
*591 FILLER_0_12_177
*592 FILLER_0_12_189
*593 FILLER_0_12_195
*594 FILLER_0_12_197
*595 FILLER_0_12_209
*596 FILLER_0_12_221
*597 FILLER_0_12_233
*598 FILLER_0_12_245
*599 FILLER_0_12_251
*600 FILLER_0_12_253
*601 FILLER_0_12_265
*602 FILLER_0_12_27
*603 FILLER_0_12_277
*604 FILLER_0_12_289
*605 FILLER_0_12_29
*606 FILLER_0_12_3
*607 FILLER_0_12_301
*608 FILLER_0_12_307
*609 FILLER_0_12_309
*610 FILLER_0_12_321
*611 FILLER_0_12_333
*612 FILLER_0_12_41
*613 FILLER_0_12_53
*614 FILLER_0_12_65
*615 FILLER_0_12_77
*616 FILLER_0_12_83
*617 FILLER_0_12_85
*618 FILLER_0_12_97
*619 FILLER_0_13_105
*620 FILLER_0_13_111
*621 FILLER_0_13_113
*622 FILLER_0_13_125
*623 FILLER_0_13_137
*624 FILLER_0_13_149
*625 FILLER_0_13_15
*626 FILLER_0_13_161
*627 FILLER_0_13_167
*628 FILLER_0_13_169
*629 FILLER_0_13_181
*630 FILLER_0_13_193
*631 FILLER_0_13_205
*632 FILLER_0_13_217
*633 FILLER_0_13_223
*634 FILLER_0_13_225
*635 FILLER_0_13_237
*636 FILLER_0_13_249
*637 FILLER_0_13_261
*638 FILLER_0_13_27
*639 FILLER_0_13_273
*640 FILLER_0_13_279
*641 FILLER_0_13_281
*642 FILLER_0_13_293
*643 FILLER_0_13_3
*644 FILLER_0_13_305
*645 FILLER_0_13_317
*646 FILLER_0_13_329
*647 FILLER_0_13_39
*648 FILLER_0_13_51
*649 FILLER_0_13_55
*650 FILLER_0_13_57
*651 FILLER_0_13_69
*652 FILLER_0_13_81
*653 FILLER_0_13_93
*654 FILLER_0_14_109
*655 FILLER_0_14_121
*656 FILLER_0_14_133
*657 FILLER_0_14_139
*658 FILLER_0_14_141
*659 FILLER_0_14_15
*660 FILLER_0_14_153
*661 FILLER_0_14_165
*662 FILLER_0_14_177
*663 FILLER_0_14_189
*664 FILLER_0_14_195
*665 FILLER_0_14_197
*666 FILLER_0_14_209
*667 FILLER_0_14_221
*668 FILLER_0_14_233
*669 FILLER_0_14_245
*670 FILLER_0_14_251
*671 FILLER_0_14_253
*672 FILLER_0_14_265
*673 FILLER_0_14_27
*674 FILLER_0_14_277
*675 FILLER_0_14_289
*676 FILLER_0_14_29
*677 FILLER_0_14_3
*678 FILLER_0_14_301
*679 FILLER_0_14_307
*680 FILLER_0_14_309
*681 FILLER_0_14_321
*682 FILLER_0_14_333
*683 FILLER_0_14_41
*684 FILLER_0_14_53
*685 FILLER_0_14_65
*686 FILLER_0_14_77
*687 FILLER_0_14_83
*688 FILLER_0_14_85
*689 FILLER_0_14_97
*690 FILLER_0_15_105
*691 FILLER_0_15_111
*692 FILLER_0_15_113
*693 FILLER_0_15_125
*694 FILLER_0_15_137
*695 FILLER_0_15_149
*696 FILLER_0_15_15
*697 FILLER_0_15_161
*698 FILLER_0_15_167
*699 FILLER_0_15_169
*700 FILLER_0_15_181
*701 FILLER_0_15_193
*702 FILLER_0_15_205
*703 FILLER_0_15_217
*704 FILLER_0_15_223
*705 FILLER_0_15_225
*706 FILLER_0_15_237
*707 FILLER_0_15_249
*708 FILLER_0_15_261
*709 FILLER_0_15_27
*710 FILLER_0_15_273
*711 FILLER_0_15_279
*712 FILLER_0_15_281
*713 FILLER_0_15_293
*714 FILLER_0_15_3
*715 FILLER_0_15_305
*716 FILLER_0_15_317
*717 FILLER_0_15_329
*718 FILLER_0_15_39
*719 FILLER_0_15_51
*720 FILLER_0_15_55
*721 FILLER_0_15_57
*722 FILLER_0_15_69
*723 FILLER_0_15_81
*724 FILLER_0_15_93
*725 FILLER_0_16_109
*726 FILLER_0_16_121
*727 FILLER_0_16_133
*728 FILLER_0_16_139
*729 FILLER_0_16_141
*730 FILLER_0_16_15
*731 FILLER_0_16_153
*732 FILLER_0_16_165
*733 FILLER_0_16_177
*734 FILLER_0_16_189
*735 FILLER_0_16_195
*736 FILLER_0_16_197
*737 FILLER_0_16_208
*738 FILLER_0_16_220
*739 FILLER_0_16_232
*740 FILLER_0_16_244
*741 FILLER_0_16_253
*742 FILLER_0_16_265
*743 FILLER_0_16_27
*744 FILLER_0_16_277
*745 FILLER_0_16_289
*746 FILLER_0_16_29
*747 FILLER_0_16_3
*748 FILLER_0_16_301
*749 FILLER_0_16_307
*750 FILLER_0_16_309
*751 FILLER_0_16_321
*752 FILLER_0_16_333
*753 FILLER_0_16_41
*754 FILLER_0_16_53
*755 FILLER_0_16_65
*756 FILLER_0_16_77
*757 FILLER_0_16_83
*758 FILLER_0_16_85
*759 FILLER_0_16_97
*760 FILLER_0_17_105
*761 FILLER_0_17_111
*762 FILLER_0_17_113
*763 FILLER_0_17_125
*764 FILLER_0_17_137
*765 FILLER_0_17_149
*766 FILLER_0_17_15
*767 FILLER_0_17_161
*768 FILLER_0_17_167
*769 FILLER_0_17_169
*770 FILLER_0_17_181
*771 FILLER_0_17_212
*772 FILLER_0_17_225
*773 FILLER_0_17_237
*774 FILLER_0_17_249
*775 FILLER_0_17_261
*776 FILLER_0_17_27
*777 FILLER_0_17_273
*778 FILLER_0_17_279
*779 FILLER_0_17_281
*780 FILLER_0_17_293
*781 FILLER_0_17_3
*782 FILLER_0_17_305
*783 FILLER_0_17_317
*784 FILLER_0_17_329
*785 FILLER_0_17_39
*786 FILLER_0_17_51
*787 FILLER_0_17_55
*788 FILLER_0_17_57
*789 FILLER_0_17_69
*790 FILLER_0_17_81
*791 FILLER_0_17_93
*792 FILLER_0_18_109
*793 FILLER_0_18_121
*794 FILLER_0_18_133
*795 FILLER_0_18_139
*796 FILLER_0_18_141
*797 FILLER_0_18_15
*798 FILLER_0_18_153
*799 FILLER_0_18_165
*800 FILLER_0_18_177
*801 FILLER_0_18_185
*802 FILLER_0_18_229
*803 FILLER_0_18_237
*804 FILLER_0_18_269
*805 FILLER_0_18_27
*806 FILLER_0_18_281
*807 FILLER_0_18_29
*808 FILLER_0_18_293
*809 FILLER_0_18_3
*810 FILLER_0_18_305
*811 FILLER_0_18_309
*812 FILLER_0_18_321
*813 FILLER_0_18_333
*814 FILLER_0_18_41
*815 FILLER_0_18_53
*816 FILLER_0_18_65
*817 FILLER_0_18_77
*818 FILLER_0_18_83
*819 FILLER_0_18_85
*820 FILLER_0_18_97
*821 FILLER_0_19_105
*822 FILLER_0_19_111
*823 FILLER_0_19_113
*824 FILLER_0_19_125
*825 FILLER_0_19_137
*826 FILLER_0_19_149
*827 FILLER_0_19_15
*828 FILLER_0_19_161
*829 FILLER_0_19_167
*830 FILLER_0_19_169
*831 FILLER_0_19_181
*832 FILLER_0_19_189
*833 FILLER_0_19_220
*834 FILLER_0_19_225
*835 FILLER_0_19_259
*836 FILLER_0_19_263
*837 FILLER_0_19_27
*838 FILLER_0_19_281
*839 FILLER_0_19_3
*840 FILLER_0_19_306
*841 FILLER_0_19_318
*842 FILLER_0_19_330
*843 FILLER_0_19_334
*844 FILLER_0_19_39
*845 FILLER_0_19_51
*846 FILLER_0_19_55
*847 FILLER_0_19_57
*848 FILLER_0_19_69
*849 FILLER_0_19_81
*850 FILLER_0_19_93
*851 FILLER_0_1_105
*852 FILLER_0_1_111
*853 FILLER_0_1_113
*854 FILLER_0_1_125
*855 FILLER_0_1_137
*856 FILLER_0_1_149
*857 FILLER_0_1_15
*858 FILLER_0_1_161
*859 FILLER_0_1_167
*860 FILLER_0_1_169
*861 FILLER_0_1_181
*862 FILLER_0_1_193
*863 FILLER_0_1_205
*864 FILLER_0_1_217
*865 FILLER_0_1_223
*866 FILLER_0_1_225
*867 FILLER_0_1_237
*868 FILLER_0_1_249
*869 FILLER_0_1_261
*870 FILLER_0_1_27
*871 FILLER_0_1_273
*872 FILLER_0_1_279
*873 FILLER_0_1_281
*874 FILLER_0_1_293
*875 FILLER_0_1_3
*876 FILLER_0_1_305
*877 FILLER_0_1_317
*878 FILLER_0_1_329
*879 FILLER_0_1_39
*880 FILLER_0_1_51
*881 FILLER_0_1_55
*882 FILLER_0_1_57
*883 FILLER_0_1_69
*884 FILLER_0_1_81
*885 FILLER_0_1_93
*886 FILLER_0_20_109
*887 FILLER_0_20_119
*888 FILLER_0_20_131
*889 FILLER_0_20_139
*890 FILLER_0_20_141
*891 FILLER_0_20_15
*892 FILLER_0_20_153
*893 FILLER_0_20_163
*894 FILLER_0_20_175
*895 FILLER_0_20_187
*896 FILLER_0_20_195
*897 FILLER_0_20_218
*898 FILLER_0_20_230
*899 FILLER_0_20_251
*900 FILLER_0_20_27
*901 FILLER_0_20_279
*902 FILLER_0_20_29
*903 FILLER_0_20_3
*904 FILLER_0_20_325
*905 FILLER_0_20_333
*906 FILLER_0_20_41
*907 FILLER_0_20_53
*908 FILLER_0_20_65
*909 FILLER_0_20_77
*910 FILLER_0_20_83
*911 FILLER_0_20_85
*912 FILLER_0_20_97
*913 FILLER_0_21_105
*914 FILLER_0_21_111
*915 FILLER_0_21_113
*916 FILLER_0_21_126
*917 FILLER_0_21_139
*918 FILLER_0_21_146
*919 FILLER_0_21_15
*920 FILLER_0_21_165
*921 FILLER_0_21_169
*922 FILLER_0_21_176
*923 FILLER_0_21_188
*924 FILLER_0_21_200
*925 FILLER_0_21_204
*926 FILLER_0_21_215
*927 FILLER_0_21_223
*928 FILLER_0_21_225
*929 FILLER_0_21_237
*930 FILLER_0_21_249
*931 FILLER_0_21_257
*932 FILLER_0_21_27
*933 FILLER_0_21_278
*934 FILLER_0_21_3
*935 FILLER_0_21_316
*936 FILLER_0_21_328
*937 FILLER_0_21_334
*938 FILLER_0_21_39
*939 FILLER_0_21_51
*940 FILLER_0_21_55
*941 FILLER_0_21_57
*942 FILLER_0_21_69
*943 FILLER_0_21_81
*944 FILLER_0_21_93
*945 FILLER_0_22_105
*946 FILLER_0_22_15
*947 FILLER_0_22_157
*948 FILLER_0_22_170
*949 FILLER_0_22_191
*950 FILLER_0_22_195
*951 FILLER_0_22_197
*952 FILLER_0_22_209
*953 FILLER_0_22_221
*954 FILLER_0_22_233
*955 FILLER_0_22_245
*956 FILLER_0_22_251
*957 FILLER_0_22_253
*958 FILLER_0_22_27
*959 FILLER_0_22_270
*960 FILLER_0_22_282
*961 FILLER_0_22_29
*962 FILLER_0_22_294
*963 FILLER_0_22_3
*964 FILLER_0_22_328
*965 FILLER_0_22_334
*966 FILLER_0_22_41
*967 FILLER_0_22_53
*968 FILLER_0_22_59
*969 FILLER_0_22_71
*970 FILLER_0_22_89
*971 FILLER_0_23_109
*972 FILLER_0_23_113
*973 FILLER_0_23_125
*974 FILLER_0_23_133
*975 FILLER_0_23_144
*976 FILLER_0_23_15
*977 FILLER_0_23_164
*978 FILLER_0_23_213
*979 FILLER_0_23_223
*980 FILLER_0_23_240
*981 FILLER_0_23_257
*982 FILLER_0_23_27
*983 FILLER_0_23_279
*984 FILLER_0_23_290
*985 FILLER_0_23_3
*986 FILLER_0_23_310
*987 FILLER_0_23_320
*988 FILLER_0_23_332
*989 FILLER_0_23_34
*990 FILLER_0_23_46
*991 FILLER_0_23_57
*992 FILLER_0_23_97
*993 FILLER_0_24_103
*994 FILLER_0_24_116
*995 FILLER_0_24_128
*996 FILLER_0_24_141
*997 FILLER_0_24_15
*998 FILLER_0_24_153
*999 FILLER_0_24_197
*1000 FILLER_0_24_224
*1001 FILLER_0_24_239
*1002 FILLER_0_24_275
*1003 FILLER_0_24_290
*1004 FILLER_0_24_3
*1005 FILLER_0_24_302
*1006 FILLER_0_24_309
*1007 FILLER_0_24_317
*1008 FILLER_0_24_326
*1009 FILLER_0_24_334
*1010 FILLER_0_24_38
*1011 FILLER_0_24_42
*1012 FILLER_0_24_48
*1013 FILLER_0_24_71
*1014 FILLER_0_24_91
*1015 FILLER_0_25_125
*1016 FILLER_0_25_137
*1017 FILLER_0_25_149
*1018 FILLER_0_25_15
*1019 FILLER_0_25_153
*1020 FILLER_0_25_190
*1021 FILLER_0_25_196
*1022 FILLER_0_25_204
*1023 FILLER_0_25_212
*1024 FILLER_0_25_220
*1025 FILLER_0_25_225
*1026 FILLER_0_25_232
*1027 FILLER_0_25_238
*1028 FILLER_0_25_244
*1029 FILLER_0_25_251
*1030 FILLER_0_25_292
*1031 FILLER_0_25_3
*1032 FILLER_0_25_304
*1033 FILLER_0_25_308
*1034 FILLER_0_25_329
*1035 FILLER_0_25_47
*1036 FILLER_0_25_55
*1037 FILLER_0_25_62
*1038 FILLER_0_25_68
*1039 FILLER_0_25_79
*1040 FILLER_0_25_91
*1041 FILLER_0_25_99
*1042 FILLER_0_26_108
*1043 FILLER_0_26_116
*1044 FILLER_0_26_137
*1045 FILLER_0_26_141
*1046 FILLER_0_26_149
*1047 FILLER_0_26_154
*1048 FILLER_0_26_174
*1049 FILLER_0_26_186
*1050 FILLER_0_26_194
*1051 FILLER_0_26_197
*1052 FILLER_0_26_205
*1053 FILLER_0_26_214
*1054 FILLER_0_26_226
*1055 FILLER_0_26_238
*1056 FILLER_0_26_242
*1057 FILLER_0_26_246
*1058 FILLER_0_26_253
*1059 FILLER_0_26_257
*1060 FILLER_0_26_278
*1061 FILLER_0_26_284
*1062 FILLER_0_26_296
*1063 FILLER_0_26_3
*1064 FILLER_0_26_328
*1065 FILLER_0_26_334
*1066 FILLER_0_26_39
*1067 FILLER_0_26_51
*1068 FILLER_0_26_63
*1069 FILLER_0_26_71
*1070 FILLER_0_26_83
*1071 FILLER_0_26_85
*1072 FILLER_0_26_93
*1073 FILLER_0_27_108
*1074 FILLER_0_27_113
*1075 FILLER_0_27_121
*1076 FILLER_0_27_136
*1077 FILLER_0_27_15
*1078 FILLER_0_27_161
*1079 FILLER_0_27_167
*1080 FILLER_0_27_175
*1081 FILLER_0_27_187
*1082 FILLER_0_27_195
*1083 FILLER_0_27_222
*1084 FILLER_0_27_237
*1085 FILLER_0_27_249
*1086 FILLER_0_27_264
*1087 FILLER_0_27_270
*1088 FILLER_0_27_279
*1089 FILLER_0_27_296
*1090 FILLER_0_27_3
*1091 FILLER_0_27_325
*1092 FILLER_0_27_333
*1093 FILLER_0_27_34
*1094 FILLER_0_27_46
*1095 FILLER_0_27_54
*1096 FILLER_0_27_57
*1097 FILLER_0_27_61
*1098 FILLER_0_27_65
*1099 FILLER_0_27_81
*1100 FILLER_0_27_93
*1101 FILLER_0_28_105
*1102 FILLER_0_28_117
*1103 FILLER_0_28_135
*1104 FILLER_0_28_139
*1105 FILLER_0_28_141
*1106 FILLER_0_28_15
*1107 FILLER_0_28_153
*1108 FILLER_0_28_179
*1109 FILLER_0_28_183
*1110 FILLER_0_28_191
*1111 FILLER_0_28_230
*1112 FILLER_0_28_246
*1113 FILLER_0_28_253
*1114 FILLER_0_28_27
*1115 FILLER_0_28_295
*1116 FILLER_0_28_3
*1117 FILLER_0_28_307
*1118 FILLER_0_28_309
*1119 FILLER_0_28_332
*1120 FILLER_0_28_36
*1121 FILLER_0_28_48
*1122 FILLER_0_28_78
*1123 FILLER_0_28_85
*1124 FILLER_0_29_100
*1125 FILLER_0_29_113
*1126 FILLER_0_29_124
*1127 FILLER_0_29_139
*1128 FILLER_0_29_15
*1129 FILLER_0_29_151
*1130 FILLER_0_29_159
*1131 FILLER_0_29_191
*1132 FILLER_0_29_202
*1133 FILLER_0_29_222
*1134 FILLER_0_29_225
*1135 FILLER_0_29_23
*1136 FILLER_0_29_241
*1137 FILLER_0_29_263
*1138 FILLER_0_29_279
*1139 FILLER_0_29_284
*1140 FILLER_0_29_296
*1141 FILLER_0_29_3
*1142 FILLER_0_29_308
*1143 FILLER_0_29_38
*1144 FILLER_0_29_42
*1145 FILLER_0_29_54
*1146 FILLER_0_29_57
*1147 FILLER_0_29_77
*1148 FILLER_0_29_89
*1149 FILLER_0_29_93
*1150 FILLER_0_2_109
*1151 FILLER_0_2_121
*1152 FILLER_0_2_133
*1153 FILLER_0_2_139
*1154 FILLER_0_2_141
*1155 FILLER_0_2_15
*1156 FILLER_0_2_153
*1157 FILLER_0_2_165
*1158 FILLER_0_2_177
*1159 FILLER_0_2_189
*1160 FILLER_0_2_195
*1161 FILLER_0_2_197
*1162 FILLER_0_2_209
*1163 FILLER_0_2_221
*1164 FILLER_0_2_233
*1165 FILLER_0_2_245
*1166 FILLER_0_2_251
*1167 FILLER_0_2_253
*1168 FILLER_0_2_265
*1169 FILLER_0_2_27
*1170 FILLER_0_2_277
*1171 FILLER_0_2_289
*1172 FILLER_0_2_29
*1173 FILLER_0_2_3
*1174 FILLER_0_2_301
*1175 FILLER_0_2_307
*1176 FILLER_0_2_309
*1177 FILLER_0_2_321
*1178 FILLER_0_2_333
*1179 FILLER_0_2_41
*1180 FILLER_0_2_53
*1181 FILLER_0_2_65
*1182 FILLER_0_2_77
*1183 FILLER_0_2_83
*1184 FILLER_0_2_85
*1185 FILLER_0_2_97
*1186 FILLER_0_30_107
*1187 FILLER_0_30_121
*1188 FILLER_0_30_138
*1189 FILLER_0_30_141
*1190 FILLER_0_30_15
*1191 FILLER_0_30_153
*1192 FILLER_0_30_161
*1193 FILLER_0_30_187
*1194 FILLER_0_30_195
*1195 FILLER_0_30_197
*1196 FILLER_0_30_229
*1197 FILLER_0_30_241
*1198 FILLER_0_30_249
*1199 FILLER_0_30_253
*1200 FILLER_0_30_27
*1201 FILLER_0_30_29
*1202 FILLER_0_30_294
*1203 FILLER_0_30_3
*1204 FILLER_0_30_325
*1205 FILLER_0_30_333
*1206 FILLER_0_30_37
*1207 FILLER_0_30_48
*1208 FILLER_0_30_59
*1209 FILLER_0_30_71
*1210 FILLER_0_30_83
*1211 FILLER_0_30_95
*1212 FILLER_0_31_104
*1213 FILLER_0_31_113
*1214 FILLER_0_31_120
*1215 FILLER_0_31_126
*1216 FILLER_0_31_138
*1217 FILLER_0_31_15
*1218 FILLER_0_31_150
*1219 FILLER_0_31_162
*1220 FILLER_0_31_166
*1221 FILLER_0_31_182
*1222 FILLER_0_31_194
*1223 FILLER_0_31_220
*1224 FILLER_0_31_225
*1225 FILLER_0_31_230
*1226 FILLER_0_31_242
*1227 FILLER_0_31_249
*1228 FILLER_0_31_257
*1229 FILLER_0_31_27
*1230 FILLER_0_31_3
*1231 FILLER_0_31_305
*1232 FILLER_0_31_313
*1233 FILLER_0_31_322
*1234 FILLER_0_31_334
*1235 FILLER_0_31_39
*1236 FILLER_0_31_43
*1237 FILLER_0_31_53
*1238 FILLER_0_31_57
*1239 FILLER_0_31_69
*1240 FILLER_0_31_77
*1241 FILLER_0_31_83
*1242 FILLER_0_31_91
*1243 FILLER_0_31_97
*1244 FILLER_0_32_105
*1245 FILLER_0_32_120
*1246 FILLER_0_32_132
*1247 FILLER_0_32_15
*1248 FILLER_0_32_166
*1249 FILLER_0_32_178
*1250 FILLER_0_32_192
*1251 FILLER_0_32_210
*1252 FILLER_0_32_222
*1253 FILLER_0_32_226
*1254 FILLER_0_32_233
*1255 FILLER_0_32_244
*1256 FILLER_0_32_251
*1257 FILLER_0_32_253
*1258 FILLER_0_32_265
*1259 FILLER_0_32_27
*1260 FILLER_0_32_274
*1261 FILLER_0_32_29
*1262 FILLER_0_32_293
*1263 FILLER_0_32_3
*1264 FILLER_0_32_301
*1265 FILLER_0_32_325
*1266 FILLER_0_32_333
*1267 FILLER_0_32_35
*1268 FILLER_0_32_57
*1269 FILLER_0_32_69
*1270 FILLER_0_32_81
*1271 FILLER_0_32_85
*1272 FILLER_0_32_97
*1273 FILLER_0_33_103
*1274 FILLER_0_33_110
*1275 FILLER_0_33_113
*1276 FILLER_0_33_125
*1277 FILLER_0_33_137
*1278 FILLER_0_33_147
*1279 FILLER_0_33_15
*1280 FILLER_0_33_158
*1281 FILLER_0_33_166
*1282 FILLER_0_33_169
*1283 FILLER_0_33_178
*1284 FILLER_0_33_212
*1285 FILLER_0_33_225
*1286 FILLER_0_33_234
*1287 FILLER_0_33_245
*1288 FILLER_0_33_262
*1289 FILLER_0_33_27
*1290 FILLER_0_33_274
*1291 FILLER_0_33_298
*1292 FILLER_0_33_3
*1293 FILLER_0_33_310
*1294 FILLER_0_33_322
*1295 FILLER_0_33_334
*1296 FILLER_0_33_35
*1297 FILLER_0_33_44
*1298 FILLER_0_33_74
*1299 FILLER_0_33_82
*1300 FILLER_0_33_91
*1301 FILLER_0_34_103
*1302 FILLER_0_34_118
*1303 FILLER_0_34_126
*1304 FILLER_0_34_137
*1305 FILLER_0_34_15
*1306 FILLER_0_34_161
*1307 FILLER_0_34_175
*1308 FILLER_0_34_194
*1309 FILLER_0_34_204
*1310 FILLER_0_34_212
*1311 FILLER_0_34_229
*1312 FILLER_0_34_269
*1313 FILLER_0_34_27
*1314 FILLER_0_34_277
*1315 FILLER_0_34_29
*1316 FILLER_0_34_295
*1317 FILLER_0_34_3
*1318 FILLER_0_34_303
*1319 FILLER_0_34_332
*1320 FILLER_0_34_41
*1321 FILLER_0_34_53
*1322 FILLER_0_34_71
*1323 FILLER_0_34_83
*1324 FILLER_0_34_85
*1325 FILLER_0_34_91
*1326 FILLER_0_34_99
*1327 FILLER_0_35_103
*1328 FILLER_0_35_111
*1329 FILLER_0_35_113
*1330 FILLER_0_35_121
*1331 FILLER_0_35_130
*1332 FILLER_0_35_143
*1333 FILLER_0_35_15
*1334 FILLER_0_35_151
*1335 FILLER_0_35_159
*1336 FILLER_0_35_186
*1337 FILLER_0_35_198
*1338 FILLER_0_35_206
*1339 FILLER_0_35_225
*1340 FILLER_0_35_237
*1341 FILLER_0_35_27
*1342 FILLER_0_35_275
*1343 FILLER_0_35_279
*1344 FILLER_0_35_281
*1345 FILLER_0_35_293
*1346 FILLER_0_35_3
*1347 FILLER_0_35_305
*1348 FILLER_0_35_314
*1349 FILLER_0_35_326
*1350 FILLER_0_35_334
*1351 FILLER_0_35_39
*1352 FILLER_0_35_51
*1353 FILLER_0_35_55
*1354 FILLER_0_35_91
*1355 FILLER_0_36_109
*1356 FILLER_0_36_114
*1357 FILLER_0_36_122
*1358 FILLER_0_36_141
*1359 FILLER_0_36_15
*1360 FILLER_0_36_153
*1361 FILLER_0_36_165
*1362 FILLER_0_36_171
*1363 FILLER_0_36_189
*1364 FILLER_0_36_195
*1365 FILLER_0_36_197
*1366 FILLER_0_36_205
*1367 FILLER_0_36_27
*1368 FILLER_0_36_288
*1369 FILLER_0_36_29
*1370 FILLER_0_36_3
*1371 FILLER_0_36_300
*1372 FILLER_0_36_309
*1373 FILLER_0_36_327
*1374 FILLER_0_36_41
*1375 FILLER_0_36_53
*1376 FILLER_0_36_65
*1377 FILLER_0_36_77
*1378 FILLER_0_36_83
*1379 FILLER_0_36_85
*1380 FILLER_0_36_91
*1381 FILLER_0_37_113
*1382 FILLER_0_37_125
*1383 FILLER_0_37_15
*1384 FILLER_0_37_161
*1385 FILLER_0_37_167
*1386 FILLER_0_37_169
*1387 FILLER_0_37_189
*1388 FILLER_0_37_201
*1389 FILLER_0_37_209
*1390 FILLER_0_37_225
*1391 FILLER_0_37_233
*1392 FILLER_0_37_249
*1393 FILLER_0_37_261
*1394 FILLER_0_37_27
*1395 FILLER_0_37_3
*1396 FILLER_0_37_314
*1397 FILLER_0_37_331
*1398 FILLER_0_37_39
*1399 FILLER_0_37_51
*1400 FILLER_0_37_55
*1401 FILLER_0_37_57
*1402 FILLER_0_38_10
*1403 FILLER_0_38_109
*1404 FILLER_0_38_130
*1405 FILLER_0_38_138
*1406 FILLER_0_38_14
*1407 FILLER_0_38_141
*1408 FILLER_0_38_153
*1409 FILLER_0_38_165
*1410 FILLER_0_38_18
*1411 FILLER_0_38_186
*1412 FILLER_0_38_194
*1413 FILLER_0_38_22
*1414 FILLER_0_38_223
*1415 FILLER_0_38_225
*1416 FILLER_0_38_231
*1417 FILLER_0_38_239
*1418 FILLER_0_38_246
*1419 FILLER_0_38_256
*1420 FILLER_0_38_262
*1421 FILLER_0_38_266
*1422 FILLER_0_38_270
*1423 FILLER_0_38_274
*1424 FILLER_0_38_278
*1425 FILLER_0_38_306
*1426 FILLER_0_38_32
*1427 FILLER_0_38_325
*1428 FILLER_0_38_333
*1429 FILLER_0_38_38
*1430 FILLER_0_38_42
*1431 FILLER_0_38_46
*1432 FILLER_0_38_50
*1433 FILLER_0_38_54
*1434 FILLER_0_38_57
*1435 FILLER_0_38_6
*1436 FILLER_0_38_62
*1437 FILLER_0_38_74
*1438 FILLER_0_38_82
*1439 FILLER_0_38_85
*1440 FILLER_0_38_97
*1441 FILLER_0_3_105
*1442 FILLER_0_3_111
*1443 FILLER_0_3_113
*1444 FILLER_0_3_125
*1445 FILLER_0_3_137
*1446 FILLER_0_3_149
*1447 FILLER_0_3_15
*1448 FILLER_0_3_161
*1449 FILLER_0_3_167
*1450 FILLER_0_3_169
*1451 FILLER_0_3_181
*1452 FILLER_0_3_193
*1453 FILLER_0_3_205
*1454 FILLER_0_3_217
*1455 FILLER_0_3_223
*1456 FILLER_0_3_225
*1457 FILLER_0_3_237
*1458 FILLER_0_3_249
*1459 FILLER_0_3_261
*1460 FILLER_0_3_27
*1461 FILLER_0_3_273
*1462 FILLER_0_3_279
*1463 FILLER_0_3_281
*1464 FILLER_0_3_293
*1465 FILLER_0_3_3
*1466 FILLER_0_3_305
*1467 FILLER_0_3_317
*1468 FILLER_0_3_329
*1469 FILLER_0_3_39
*1470 FILLER_0_3_51
*1471 FILLER_0_3_55
*1472 FILLER_0_3_57
*1473 FILLER_0_3_69
*1474 FILLER_0_3_81
*1475 FILLER_0_3_93
*1476 FILLER_0_4_109
*1477 FILLER_0_4_121
*1478 FILLER_0_4_133
*1479 FILLER_0_4_139
*1480 FILLER_0_4_141
*1481 FILLER_0_4_15
*1482 FILLER_0_4_153
*1483 FILLER_0_4_165
*1484 FILLER_0_4_177
*1485 FILLER_0_4_189
*1486 FILLER_0_4_195
*1487 FILLER_0_4_197
*1488 FILLER_0_4_209
*1489 FILLER_0_4_221
*1490 FILLER_0_4_233
*1491 FILLER_0_4_245
*1492 FILLER_0_4_251
*1493 FILLER_0_4_253
*1494 FILLER_0_4_265
*1495 FILLER_0_4_27
*1496 FILLER_0_4_277
*1497 FILLER_0_4_289
*1498 FILLER_0_4_29
*1499 FILLER_0_4_3
*1500 FILLER_0_4_301
*1501 FILLER_0_4_307
*1502 FILLER_0_4_309
*1503 FILLER_0_4_321
*1504 FILLER_0_4_333
*1505 FILLER_0_4_41
*1506 FILLER_0_4_53
*1507 FILLER_0_4_65
*1508 FILLER_0_4_77
*1509 FILLER_0_4_83
*1510 FILLER_0_4_85
*1511 FILLER_0_4_97
*1512 FILLER_0_5_105
*1513 FILLER_0_5_111
*1514 FILLER_0_5_113
*1515 FILLER_0_5_125
*1516 FILLER_0_5_137
*1517 FILLER_0_5_149
*1518 FILLER_0_5_15
*1519 FILLER_0_5_161
*1520 FILLER_0_5_167
*1521 FILLER_0_5_169
*1522 FILLER_0_5_181
*1523 FILLER_0_5_193
*1524 FILLER_0_5_205
*1525 FILLER_0_5_217
*1526 FILLER_0_5_223
*1527 FILLER_0_5_225
*1528 FILLER_0_5_237
*1529 FILLER_0_5_249
*1530 FILLER_0_5_261
*1531 FILLER_0_5_27
*1532 FILLER_0_5_273
*1533 FILLER_0_5_279
*1534 FILLER_0_5_281
*1535 FILLER_0_5_293
*1536 FILLER_0_5_3
*1537 FILLER_0_5_305
*1538 FILLER_0_5_317
*1539 FILLER_0_5_329
*1540 FILLER_0_5_39
*1541 FILLER_0_5_51
*1542 FILLER_0_5_55
*1543 FILLER_0_5_57
*1544 FILLER_0_5_69
*1545 FILLER_0_5_81
*1546 FILLER_0_5_93
*1547 FILLER_0_6_109
*1548 FILLER_0_6_121
*1549 FILLER_0_6_133
*1550 FILLER_0_6_139
*1551 FILLER_0_6_141
*1552 FILLER_0_6_15
*1553 FILLER_0_6_153
*1554 FILLER_0_6_165
*1555 FILLER_0_6_177
*1556 FILLER_0_6_189
*1557 FILLER_0_6_195
*1558 FILLER_0_6_197
*1559 FILLER_0_6_209
*1560 FILLER_0_6_221
*1561 FILLER_0_6_233
*1562 FILLER_0_6_245
*1563 FILLER_0_6_251
*1564 FILLER_0_6_253
*1565 FILLER_0_6_265
*1566 FILLER_0_6_27
*1567 FILLER_0_6_277
*1568 FILLER_0_6_289
*1569 FILLER_0_6_29
*1570 FILLER_0_6_3
*1571 FILLER_0_6_301
*1572 FILLER_0_6_307
*1573 FILLER_0_6_309
*1574 FILLER_0_6_321
*1575 FILLER_0_6_333
*1576 FILLER_0_6_41
*1577 FILLER_0_6_53
*1578 FILLER_0_6_65
*1579 FILLER_0_6_77
*1580 FILLER_0_6_83
*1581 FILLER_0_6_85
*1582 FILLER_0_6_97
*1583 FILLER_0_7_105
*1584 FILLER_0_7_111
*1585 FILLER_0_7_113
*1586 FILLER_0_7_125
*1587 FILLER_0_7_137
*1588 FILLER_0_7_149
*1589 FILLER_0_7_15
*1590 FILLER_0_7_161
*1591 FILLER_0_7_167
*1592 FILLER_0_7_169
*1593 FILLER_0_7_181
*1594 FILLER_0_7_193
*1595 FILLER_0_7_205
*1596 FILLER_0_7_217
*1597 FILLER_0_7_223
*1598 FILLER_0_7_225
*1599 FILLER_0_7_237
*1600 FILLER_0_7_249
*1601 FILLER_0_7_261
*1602 FILLER_0_7_27
*1603 FILLER_0_7_273
*1604 FILLER_0_7_279
*1605 FILLER_0_7_281
*1606 FILLER_0_7_293
*1607 FILLER_0_7_3
*1608 FILLER_0_7_305
*1609 FILLER_0_7_317
*1610 FILLER_0_7_329
*1611 FILLER_0_7_39
*1612 FILLER_0_7_51
*1613 FILLER_0_7_55