*SPEF "ieee 1481-1999"
*DESIGN "tt_um_pa1mantri_cdc_fifo"
*DATE "10:55:37 Friday May 31, 2024"
*VENDOR "The OpenROAD Project"
*PROGRAM "OpenROAD"
*VERSION "da0053d7b0014ab9c87ea148875ff6c2a0f9b658"
*DESIGN_FLOW "NAME_SCOPE LOCAL" "PIN_CAP NONE"
*DIVIDER /
*DELIMITER :
*BUS_DELIMITER []
*T_UNIT 1 NS
*C_UNIT 1 PF
*R_UNIT 1 OHM
*L_UNIT 1 HENRY

*NAME_MAP
*3 clk
*4 ena
*5 rst_n
*6 ui_in[0]
*7 ui_in[1]
*8 ui_in[2]
*9 ui_in[3]
*10 ui_in[4]
*11 ui_in[5]
*12 ui_in[6]
*13 ui_in[7]
*14 uio_in[0]
*15 uio_in[1]
*16 uio_in[2]
*17 uio_in[3]
*18 uio_in[4]
*19 uio_in[5]
*20 uio_in[6]
*21 uio_in[7]
*22 net22
*23 net23
*24 net24
*25 net25
*26 net26
*27 net27
*28 net28
*29 net29
*30 net30
*31 net31
*32 net32
*33 net33
*34 net34
*35 net35
*36 net36
*37 net37
*38 uo_out[0]
*39 uo_out[1]
*40 net38
*41 net39
*42 uo_out[4]
*43 net40
*44 net41
*45 net42
*46 _000_
*47 _001_
*48 _002_
*49 _003_
*50 _004_
*51 _005_
*52 _006_
*53 _007_
*54 _008_
*55 _009_
*56 _010_
*57 _011_
*58 _012_
*59 _013_
*60 _014_
*61 _015_
*62 _016_
*63 _017_
*64 _018_
*65 _019_
*66 _020_
*67 _021_
*68 _022_
*69 _023_
*70 _024_
*71 _025_
*72 _026_
*73 _027_
*74 _028_
*75 _029_
*76 _030_
*77 _031_
*78 _032_
*79 _033_
*80 _034_
*81 _035_
*82 _036_
*83 _037_
*84 _038_
*85 _039_
*86 _040_
*87 _041_
*88 _042_
*89 _043_
*90 _044_
*91 _045_
*92 _046_
*93 _047_
*94 _048_
*95 _049_
*96 _050_
*97 _051_
*98 _052_
*99 _053_
*100 _054_
*101 _055_
*102 _056_
*103 _057_
*104 _058_
*105 _059_
*106 _060_
*107 _061_
*108 _062_
*109 _063_
*110 _064_
*111 _065_
*112 _066_
*113 _067_
*114 _068_
*115 _069_
*116 _070_
*117 _071_
*118 _072_
*119 _073_
*120 _074_
*121 _075_
*122 _076_
*123 _077_
*124 _078_
*125 _079_
*126 _080_
*127 _081_
*128 _082_
*129 _083_
*130 _084_
*131 _085_
*132 _086_
*133 _087_
*134 _088_
*135 _089_
*136 _090_
*137 _091_
*138 _092_
*139 _093_
*140 _094_
*141 _095_
*142 _096_
*143 _097_
*144 _098_
*145 _099_
*146 _100_
*147 _101_
*148 _102_
*149 _103_
*150 _104_
*151 _105_
*152 _106_
*153 _107_
*154 _108_
*155 _109_
*156 _110_
*157 _111_
*158 _112_
*159 _113_
*160 _114_
*161 _115_
*162 _116_
*163 _117_
*164 _118_
*165 _119_
*166 _120_
*167 _121_
*168 _122_
*169 _123_
*170 _124_
*171 _125_
*172 _126_
*173 _127_
*174 _128_
*175 _129_
*176 _130_
*177 _131_
*178 _132_
*179 _133_
*180 _134_
*181 _135_
*182 _136_
*183 _137_
*184 _138_
*185 _139_
*186 _140_
*187 _141_
*188 _142_
*189 _143_
*190 _144_
*191 _145_
*192 _146_
*193 _147_
*194 _148_
*195 _149_
*196 _150_
*197 _151_
*198 _152_
*199 _153_
*200 _154_
*201 _155_
*202 _156_
*203 _157_
*204 _158_
*205 _159_
*206 _160_
*207 _161_
*208 _162_
*209 _163_
*210 _164_
*211 _165_
*212 _166_
*213 _167_
*214 _168_
*215 _169_
*216 _170_
*217 _171_
*218 _172_
*219 _173_
*220 _174_
*221 _175_
*222 _176_
*223 _177_
*224 _178_
*225 _179_
*226 _180_
*227 _181_
*228 _182_
*229 _183_
*230 _184_
*231 _185_
*232 _186_
*233 _187_
*234 _188_
*235 _189_
*236 _190_
*237 _191_
*238 _192_
*239 _193_
*240 _194_
*241 _195_
*242 _196_
*243 _197_
*244 _198_
*245 _199_
*246 _200_
*247 fifo\.empty
*248 fifo\.fifo_memory\.memory\[0\]\[0\]
*249 fifo\.fifo_memory\.memory\[10\]\[0\]
*250 fifo\.fifo_memory\.memory\[11\]\[0\]
*251 fifo\.fifo_memory\.memory\[12\]\[0\]
*252 fifo\.fifo_memory\.memory\[13\]\[0\]
*253 fifo\.fifo_memory\.memory\[14\]\[0\]
*254 fifo\.fifo_memory\.memory\[15\]\[0\]
*255 fifo\.fifo_memory\.memory\[16\]\[0\]
*256 fifo\.fifo_memory\.memory\[17\]\[0\]
*257 fifo\.fifo_memory\.memory\[18\]\[0\]
*258 fifo\.fifo_memory\.memory\[19\]\[0\]
*259 fifo\.fifo_memory\.memory\[1\]\[0\]
*260 fifo\.fifo_memory\.memory\[20\]\[0\]
*261 fifo\.fifo_memory\.memory\[21\]\[0\]
*262 fifo\.fifo_memory\.memory\[22\]\[0\]
*263 fifo\.fifo_memory\.memory\[23\]\[0\]
*264 fifo\.fifo_memory\.memory\[24\]\[0\]
*265 fifo\.fifo_memory\.memory\[25\]\[0\]
*266 fifo\.fifo_memory\.memory\[26\]\[0\]
*267 fifo\.fifo_memory\.memory\[27\]\[0\]
*268 fifo\.fifo_memory\.memory\[28\]\[0\]
*269 fifo\.fifo_memory\.memory\[29\]\[0\]
*270 fifo\.fifo_memory\.memory\[2\]\[0\]
*271 fifo\.fifo_memory\.memory\[30\]\[0\]
*272 fifo\.fifo_memory\.memory\[31\]\[0\]
*273 fifo\.fifo_memory\.memory\[3\]\[0\]
*274 fifo\.fifo_memory\.memory\[4\]\[0\]
*275 fifo\.fifo_memory\.memory\[5\]\[0\]
*276 fifo\.fifo_memory\.memory\[6\]\[0\]
*277 fifo\.fifo_memory\.memory\[7\]\[0\]
*278 fifo\.fifo_memory\.memory\[8\]\[0\]
*279 fifo\.fifo_memory\.memory\[9\]\[0\]
*280 fifo\.fifo_memory\.read_address\[0\]
*281 fifo\.fifo_memory\.read_address\[1\]
*282 fifo\.fifo_memory\.read_address\[2\]
*283 fifo\.fifo_memory\.read_address\[3\]
*284 fifo\.fifo_memory\.read_address\[4\]
*285 fifo\.fifo_memory\.write_address\[0\]
*286 fifo\.fifo_memory\.write_address\[1\]
*287 fifo\.fifo_memory\.write_address\[2\]
*288 fifo\.fifo_memory\.write_address\[3\]
*289 fifo\.fifo_memory\.write_address\[4\]
*290 fifo\.full
*291 fifo\.read_address_gray_postsync\[0\]
*292 fifo\.read_address_gray_postsync\[1\]
*293 fifo\.read_address_gray_postsync\[2\]
*294 fifo\.read_address_gray_postsync\[3\]
*295 fifo\.read_address_gray_postsync\[4\]
*296 fifo\.read_address_gray_presync\[0\]
*297 fifo\.read_address_gray_presync\[1\]
*298 fifo\.read_address_gray_presync\[2\]
*299 fifo\.read_address_gray_presync\[3\]
*300 fifo\.read_address_sync\.data\[0\]
*301 fifo\.read_address_sync\.data\[1\]
*302 fifo\.read_address_sync\.data\[2\]
*303 fifo\.read_address_sync\.data\[3\]
*304 fifo\.read_address_sync\.data\[4\]
*305 fifo\.readstate\.write_addr_decode\.binary\[4\]
*306 fifo\.readstate\.write_addr_decode\.gray\[0\]
*307 fifo\.readstate\.write_addr_decode\.gray\[1\]
*308 fifo\.readstate\.write_addr_decode\.gray\[2\]
*309 fifo\.readstate\.write_addr_decode\.gray\[3\]
*310 fifo\.write_address_gray_presync\[0\]
*311 fifo\.write_address_gray_presync\[1\]
*312 fifo\.write_address_gray_presync\[2\]
*313 fifo\.write_address_gray_presync\[3\]
*314 fifo\.write_address_sync\.data\[0\]
*315 fifo\.write_address_sync\.data\[1\]
*316 fifo\.write_address_sync\.data\[2\]
*317 fifo\.write_address_sync\.data\[3\]
*318 fifo\.write_address_sync\.data\[4\]
*319 net1
*320 net10
*321 net11
*322 net12
*323 net13
*324 net14
*325 net15
*326 net16
*327 net17
*328 net18
*329 net19
*330 net2
*331 net20
*332 net21
*333 net3
*334 net4
*335 net5
*336 net6
*337 net7
*338 net8
*339 net9
*340 FILLER_0_0_109
*341 FILLER_0_0_113
*342 FILLER_0_0_125
*343 FILLER_0_0_137
*344 FILLER_0_0_141
*345 FILLER_0_0_15
*346 FILLER_0_0_153
*347 FILLER_0_0_165
*348 FILLER_0_0_169
*349 FILLER_0_0_181
*350 FILLER_0_0_193
*351 FILLER_0_0_197
*352 FILLER_0_0_209
*353 FILLER_0_0_221
*354 FILLER_0_0_225
*355 FILLER_0_0_237
*356 FILLER_0_0_249
*357 FILLER_0_0_253
*358 FILLER_0_0_265
*359 FILLER_0_0_27
*360 FILLER_0_0_277
*361 FILLER_0_0_281
*362 FILLER_0_0_29
*363 FILLER_0_0_293
*364 FILLER_0_0_3
*365 FILLER_0_0_305
*366 FILLER_0_0_309
*367 FILLER_0_0_321
*368 FILLER_0_0_333
*369 FILLER_0_0_41
*370 FILLER_0_0_53
*371 FILLER_0_0_57
*372 FILLER_0_0_69
*373 FILLER_0_0_81
*374 FILLER_0_0_85
*375 FILLER_0_0_97
*376 FILLER_0_10_109
*377 FILLER_0_10_121
*378 FILLER_0_10_133
*379 FILLER_0_10_139
*380 FILLER_0_10_141
*381 FILLER_0_10_15
*382 FILLER_0_10_153
*383 FILLER_0_10_165
*384 FILLER_0_10_177
*385 FILLER_0_10_189
*386 FILLER_0_10_195
*387 FILLER_0_10_197
*388 FILLER_0_10_209
*389 FILLER_0_10_221
*390 FILLER_0_10_233
*391 FILLER_0_10_245
*392 FILLER_0_10_251
*393 FILLER_0_10_253
*394 FILLER_0_10_265
*395 FILLER_0_10_27
*396 FILLER_0_10_277
*397 FILLER_0_10_289
*398 FILLER_0_10_29
*399 FILLER_0_10_3
*400 FILLER_0_10_301
*401 FILLER_0_10_307
*402 FILLER_0_10_309
*403 FILLER_0_10_321
*404 FILLER_0_10_333
*405 FILLER_0_10_41
*406 FILLER_0_10_53
*407 FILLER_0_10_65
*408 FILLER_0_10_77
*409 FILLER_0_10_83
*410 FILLER_0_10_85
*411 FILLER_0_10_97
*412 FILLER_0_11_105
*413 FILLER_0_11_111
*414 FILLER_0_11_113
*415 FILLER_0_11_125
*416 FILLER_0_11_137
*417 FILLER_0_11_149
*418 FILLER_0_11_15
*419 FILLER_0_11_161
*420 FILLER_0_11_167
*421 FILLER_0_11_169
*422 FILLER_0_11_181
*423 FILLER_0_11_193
*424 FILLER_0_11_205
*425 FILLER_0_11_217
*426 FILLER_0_11_223
*427 FILLER_0_11_225
*428 FILLER_0_11_237
*429 FILLER_0_11_249
*430 FILLER_0_11_261
*431 FILLER_0_11_27
*432 FILLER_0_11_273
*433 FILLER_0_11_279
*434 FILLER_0_11_281
*435 FILLER_0_11_293
*436 FILLER_0_11_3
*437 FILLER_0_11_305
*438 FILLER_0_11_317
*439 FILLER_0_11_329
*440 FILLER_0_11_39
*441 FILLER_0_11_51
*442 FILLER_0_11_55
*443 FILLER_0_11_57
*444 FILLER_0_11_69
*445 FILLER_0_11_81
*446 FILLER_0_11_93
*447 FILLER_0_12_109
*448 FILLER_0_12_121
*449 FILLER_0_12_133
*450 FILLER_0_12_139
*451 FILLER_0_12_141
*452 FILLER_0_12_15
*453 FILLER_0_12_153
*454 FILLER_0_12_165
*455 FILLER_0_12_177
*456 FILLER_0_12_189
*457 FILLER_0_12_195
*458 FILLER_0_12_197
*459 FILLER_0_12_209
*460 FILLER_0_12_221
*461 FILLER_0_12_233
*462 FILLER_0_12_245
*463 FILLER_0_12_251
*464 FILLER_0_12_253
*465 FILLER_0_12_265
*466 FILLER_0_12_27
*467 FILLER_0_12_277
*468 FILLER_0_12_289
*469 FILLER_0_12_29
*470 FILLER_0_12_3
*471 FILLER_0_12_301
*472 FILLER_0_12_307
*473 FILLER_0_12_309
*474 FILLER_0_12_321
*475 FILLER_0_12_333
*476 FILLER_0_12_41
*477 FILLER_0_12_53
*478 FILLER_0_12_65
*479 FILLER_0_12_77
*480 FILLER_0_12_83
*481 FILLER_0_12_85
*482 FILLER_0_12_97
*483 FILLER_0_13_105
*484 FILLER_0_13_111
*485 FILLER_0_13_113
*486 FILLER_0_13_125
*487 FILLER_0_13_137
*488 FILLER_0_13_149
*489 FILLER_0_13_15
*490 FILLER_0_13_161
*491 FILLER_0_13_167
*492 FILLER_0_13_169
*493 FILLER_0_13_181
*494 FILLER_0_13_193
*495 FILLER_0_13_205
*496 FILLER_0_13_217
*497 FILLER_0_13_223
*498 FILLER_0_13_225
*499 FILLER_0_13_237
*500 FILLER_0_13_249
*501 FILLER_0_13_261
*502 FILLER_0_13_27
*503 FILLER_0_13_273
*504 FILLER_0_13_279
*505 FILLER_0_13_281
*506 FILLER_0_13_293
*507 FILLER_0_13_3
*508 FILLER_0_13_305
*509 FILLER_0_13_317
*510 FILLER_0_13_329
*511 FILLER_0_13_39
*512 FILLER_0_13_51
*513 FILLER_0_13_55
*514 FILLER_0_13_57
*515 FILLER_0_13_69
*516 FILLER_0_13_81
*517 FILLER_0_13_93
*518 FILLER_0_14_109
*519 FILLER_0_14_121
*520 FILLER_0_14_133
*521 FILLER_0_14_139
*522 FILLER_0_14_141
*523 FILLER_0_14_15
*524 FILLER_0_14_153
*525 FILLER_0_14_165
*526 FILLER_0_14_177
*527 FILLER_0_14_189
*528 FILLER_0_14_195
*529 FILLER_0_14_197
*530 FILLER_0_14_209
*531 FILLER_0_14_221
*532 FILLER_0_14_233
*533 FILLER_0_14_245
*534 FILLER_0_14_251
*535 FILLER_0_14_253
*536 FILLER_0_14_265
*537 FILLER_0_14_27
*538 FILLER_0_14_277
*539 FILLER_0_14_289
*540 FILLER_0_14_29
*541 FILLER_0_14_3
*542 FILLER_0_14_301
*543 FILLER_0_14_307
*544 FILLER_0_14_309
*545 FILLER_0_14_321
*546 FILLER_0_14_333
*547 FILLER_0_14_41
*548 FILLER_0_14_53
*549 FILLER_0_14_65
*550 FILLER_0_14_77
*551 FILLER_0_14_83
*552 FILLER_0_14_85
*553 FILLER_0_14_97
*554 FILLER_0_15_105
*555 FILLER_0_15_111
*556 FILLER_0_15_113
*557 FILLER_0_15_125
*558 FILLER_0_15_137
*559 FILLER_0_15_149
*560 FILLER_0_15_15
*561 FILLER_0_15_161
*562 FILLER_0_15_167
*563 FILLER_0_15_169
*564 FILLER_0_15_181
*565 FILLER_0_15_193
*566 FILLER_0_15_205
*567 FILLER_0_15_217
*568 FILLER_0_15_223
*569 FILLER_0_15_225
*570 FILLER_0_15_237
*571 FILLER_0_15_249
*572 FILLER_0_15_261
*573 FILLER_0_15_27
*574 FILLER_0_15_273
*575 FILLER_0_15_279
*576 FILLER_0_15_281
*577 FILLER_0_15_293
*578 FILLER_0_15_3
*579 FILLER_0_15_305
*580 FILLER_0_15_317
*581 FILLER_0_15_329
*582 FILLER_0_15_39
*583 FILLER_0_15_51
*584 FILLER_0_15_55
*585 FILLER_0_15_57
*586 FILLER_0_15_69
*587 FILLER_0_15_81
*588 FILLER_0_15_93
*589 FILLER_0_16_109
*590 FILLER_0_16_121
*591 FILLER_0_16_133
*592 FILLER_0_16_139
*593 FILLER_0_16_141
*594 FILLER_0_16_15
*595 FILLER_0_16_153
*596 FILLER_0_16_165
*597 FILLER_0_16_177
*598 FILLER_0_16_189
*599 FILLER_0_16_195
*600 FILLER_0_16_197
*601 FILLER_0_16_209
*602 FILLER_0_16_221
*603 FILLER_0_16_233
*604 FILLER_0_16_245
*605 FILLER_0_16_251
*606 FILLER_0_16_253
*607 FILLER_0_16_265
*608 FILLER_0_16_27
*609 FILLER_0_16_277
*610 FILLER_0_16_289
*611 FILLER_0_16_29
*612 FILLER_0_16_3
*613 FILLER_0_16_301
*614 FILLER_0_16_307
*615 FILLER_0_16_309
*616 FILLER_0_16_321
*617 FILLER_0_16_333
*618 FILLER_0_16_41
*619 FILLER_0_16_53
*620 FILLER_0_16_65
*621 FILLER_0_16_77
*622 FILLER_0_16_83
*623 FILLER_0_16_85
*624 FILLER_0_16_97
*625 FILLER_0_17_105
*626 FILLER_0_17_111
*627 FILLER_0_17_113
*628 FILLER_0_17_125
*629 FILLER_0_17_137
*630 FILLER_0_17_149
*631 FILLER_0_17_15
*632 FILLER_0_17_161
*633 FILLER_0_17_167
*634 FILLER_0_17_169
*635 FILLER_0_17_181
*636 FILLER_0_17_193
*637 FILLER_0_17_205
*638 FILLER_0_17_217
*639 FILLER_0_17_223
*640 FILLER_0_17_225
*641 FILLER_0_17_237
*642 FILLER_0_17_249
*643 FILLER_0_17_261
*644 FILLER_0_17_27
*645 FILLER_0_17_273
*646 FILLER_0_17_279
*647 FILLER_0_17_281
*648 FILLER_0_17_293
*649 FILLER_0_17_3
*650 FILLER_0_17_305
*651 FILLER_0_17_317
*652 FILLER_0_17_329
*653 FILLER_0_17_39
*654 FILLER_0_17_51
*655 FILLER_0_17_55
*656 FILLER_0_17_57
*657 FILLER_0_17_69
*658 FILLER_0_17_81
*659 FILLER_0_17_93
*660 FILLER_0_18_109
*661 FILLER_0_18_121
*662 FILLER_0_18_133
*663 FILLER_0_18_139
*664 FILLER_0_18_141
*665 FILLER_0_18_15
*666 FILLER_0_18_153
*667 FILLER_0_18_165
*668 FILLER_0_18_177
*669 FILLER_0_18_189
*670 FILLER_0_18_195
*671 FILLER_0_18_197
*672 FILLER_0_18_209
*673 FILLER_0_18_221
*674 FILLER_0_18_233
*675 FILLER_0_18_245
*676 FILLER_0_18_251
*677 FILLER_0_18_253
*678 FILLER_0_18_265
*679 FILLER_0_18_27
*680 FILLER_0_18_277
*681 FILLER_0_18_289
*682 FILLER_0_18_29
*683 FILLER_0_18_3
*684 FILLER_0_18_301
*685 FILLER_0_18_307
*686 FILLER_0_18_309
*687 FILLER_0_18_321
*688 FILLER_0_18_333
*689 FILLER_0_18_41
*690 FILLER_0_18_53
*691 FILLER_0_18_65
*692 FILLER_0_18_77
*693 FILLER_0_18_83
*694 FILLER_0_18_85
*695 FILLER_0_18_97
*696 FILLER_0_19_105
*697 FILLER_0_19_111
*698 FILLER_0_19_113
*699 FILLER_0_19_125
*700 FILLER_0_19_137
*701 FILLER_0_19_149
*702 FILLER_0_19_15
*703 FILLER_0_19_161
*704 FILLER_0_19_167
*705 FILLER_0_19_169
*706 FILLER_0_19_181
*707 FILLER_0_19_193
*708 FILLER_0_19_205
*709 FILLER_0_19_217
*710 FILLER_0_19_223
*711 FILLER_0_19_225
*712 FILLER_0_19_237
*713 FILLER_0_19_249
*714 FILLER_0_19_261
*715 FILLER_0_19_27
*716 FILLER_0_19_273
*717 FILLER_0_19_279
*718 FILLER_0_19_281
*719 FILLER_0_19_293
*720 FILLER_0_19_3
*721 FILLER_0_19_305
*722 FILLER_0_19_317
*723 FILLER_0_19_329
*724 FILLER_0_19_39
*725 FILLER_0_19_51
*726 FILLER_0_19_55
*727 FILLER_0_19_57
*728 FILLER_0_19_69
*729 FILLER_0_19_81
*730 FILLER_0_19_93
*731 FILLER_0_1_105
*732 FILLER_0_1_111
*733 FILLER_0_1_113
*734 FILLER_0_1_125
*735 FILLER_0_1_137
*736 FILLER_0_1_149
*737 FILLER_0_1_15
*738 FILLER_0_1_161
*739 FILLER_0_1_167
*740 FILLER_0_1_169
*741 FILLER_0_1_181
*742 FILLER_0_1_193
*743 FILLER_0_1_205
*744 FILLER_0_1_217
*745 FILLER_0_1_223
*746 FILLER_0_1_225
*747 FILLER_0_1_237
*748 FILLER_0_1_249
*749 FILLER_0_1_261
*750 FILLER_0_1_27
*751 FILLER_0_1_273
*752 FILLER_0_1_279
*753 FILLER_0_1_281
*754 FILLER_0_1_293
*755 FILLER_0_1_3
*756 FILLER_0_1_305
*757 FILLER_0_1_317
*758 FILLER_0_1_329
*759 FILLER_0_1_39
*760 FILLER_0_1_51
*761 FILLER_0_1_55
*762 FILLER_0_1_57
*763 FILLER_0_1_69
*764 FILLER_0_1_81
*765 FILLER_0_1_93
*766 FILLER_0_20_109
*767 FILLER_0_20_121
*768 FILLER_0_20_133
*769 FILLER_0_20_139
*770 FILLER_0_20_141
*771 FILLER_0_20_15
*772 FILLER_0_20_153
*773 FILLER_0_20_165
*774 FILLER_0_20_177
*775 FILLER_0_20_189
*776 FILLER_0_20_195
*777 FILLER_0_20_197
*778 FILLER_0_20_209
*779 FILLER_0_20_221
*780 FILLER_0_20_233
*781 FILLER_0_20_245
*782 FILLER_0_20_251
*783 FILLER_0_20_253
*784 FILLER_0_20_265
*785 FILLER_0_20_27
*786 FILLER_0_20_277
*787 FILLER_0_20_289
*788 FILLER_0_20_29
*789 FILLER_0_20_3
*790 FILLER_0_20_301
*791 FILLER_0_20_307
*792 FILLER_0_20_309
*793 FILLER_0_20_321
*794 FILLER_0_20_333
*795 FILLER_0_20_41
*796 FILLER_0_20_53
*797 FILLER_0_20_65
*798 FILLER_0_20_77
*799 FILLER_0_20_83
*800 FILLER_0_20_85
*801 FILLER_0_20_97
*802 FILLER_0_21_105
*803 FILLER_0_21_111
*804 FILLER_0_21_113
*805 FILLER_0_21_125
*806 FILLER_0_21_137
*807 FILLER_0_21_15
*808 FILLER_0_21_155
*809 FILLER_0_21_167
*810 FILLER_0_21_169
*811 FILLER_0_21_181
*812 FILLER_0_21_193
*813 FILLER_0_21_205
*814 FILLER_0_21_217
*815 FILLER_0_21_223
*816 FILLER_0_21_225
*817 FILLER_0_21_237
*818 FILLER_0_21_249
*819 FILLER_0_21_261
*820 FILLER_0_21_27
*821 FILLER_0_21_273
*822 FILLER_0_21_279
*823 FILLER_0_21_281
*824 FILLER_0_21_293
*825 FILLER_0_21_3
*826 FILLER_0_21_305
*827 FILLER_0_21_317
*828 FILLER_0_21_329
*829 FILLER_0_21_39
*830 FILLER_0_21_51
*831 FILLER_0_21_55
*832 FILLER_0_21_57
*833 FILLER_0_21_69
*834 FILLER_0_21_81
*835 FILLER_0_21_93
*836 FILLER_0_22_111
*837 FILLER_0_22_136
*838 FILLER_0_22_141
*839 FILLER_0_22_145
*840 FILLER_0_22_15
*841 FILLER_0_22_165
*842 FILLER_0_22_177
*843 FILLER_0_22_189
*844 FILLER_0_22_195
*845 FILLER_0_22_197
*846 FILLER_0_22_226
*847 FILLER_0_22_238
*848 FILLER_0_22_250
*849 FILLER_0_22_253
*850 FILLER_0_22_265
*851 FILLER_0_22_27
*852 FILLER_0_22_277
*853 FILLER_0_22_289
*854 FILLER_0_22_29
*855 FILLER_0_22_3
*856 FILLER_0_22_301
*857 FILLER_0_22_307
*858 FILLER_0_22_309
*859 FILLER_0_22_321
*860 FILLER_0_22_333
*861 FILLER_0_22_41
*862 FILLER_0_22_53
*863 FILLER_0_22_65
*864 FILLER_0_22_82
*865 FILLER_0_22_94
*866 FILLER_0_22_99
*867 FILLER_0_23_107
*868 FILLER_0_23_111
*869 FILLER_0_23_113
*870 FILLER_0_23_140
*871 FILLER_0_23_15
*872 FILLER_0_23_166
*873 FILLER_0_23_169
*874 FILLER_0_23_180
*875 FILLER_0_23_225
*876 FILLER_0_23_237
*877 FILLER_0_23_249
*878 FILLER_0_23_261
*879 FILLER_0_23_27
*880 FILLER_0_23_273
*881 FILLER_0_23_279
*882 FILLER_0_23_281
*883 FILLER_0_23_293
*884 FILLER_0_23_3
*885 FILLER_0_23_305
*886 FILLER_0_23_317
*887 FILLER_0_23_329
*888 FILLER_0_23_39
*889 FILLER_0_23_51
*890 FILLER_0_23_55
*891 FILLER_0_23_57
*892 FILLER_0_23_65
*893 FILLER_0_23_89
*894 FILLER_0_24_115
*895 FILLER_0_24_124
*896 FILLER_0_24_141
*897 FILLER_0_24_147
*898 FILLER_0_24_15
*899 FILLER_0_24_158
*900 FILLER_0_24_170
*901 FILLER_0_24_174
*902 FILLER_0_24_207
*903 FILLER_0_24_211
*904 FILLER_0_24_218
*905 FILLER_0_24_222
*906 FILLER_0_24_230
*907 FILLER_0_24_237
*908 FILLER_0_24_249
*909 FILLER_0_24_253
*910 FILLER_0_24_27
*911 FILLER_0_24_29
*912 FILLER_0_24_3
*913 FILLER_0_24_303
*914 FILLER_0_24_307
*915 FILLER_0_24_309
*916 FILLER_0_24_321
*917 FILLER_0_24_333
*918 FILLER_0_24_41
*919 FILLER_0_24_53
*920 FILLER_0_24_72
*921 FILLER_0_25_111
*922 FILLER_0_25_113
*923 FILLER_0_25_118
*924 FILLER_0_25_132
*925 FILLER_0_25_15
*926 FILLER_0_25_157
*927 FILLER_0_25_165
*928 FILLER_0_25_169
*929 FILLER_0_25_190
*930 FILLER_0_25_197
*931 FILLER_0_25_209
*932 FILLER_0_25_216
*933 FILLER_0_25_220
*934 FILLER_0_25_243
*935 FILLER_0_25_255
*936 FILLER_0_25_263
*937 FILLER_0_25_27
*938 FILLER_0_25_278
*939 FILLER_0_25_288
*940 FILLER_0_25_3
*941 FILLER_0_25_300
*942 FILLER_0_25_312
*943 FILLER_0_25_324
*944 FILLER_0_25_332
*945 FILLER_0_25_39
*946 FILLER_0_25_51
*947 FILLER_0_25_55
*948 FILLER_0_25_57
*949 FILLER_0_25_64
*950 FILLER_0_25_75
*951 FILLER_0_25_80
*952 FILLER_0_25_98
*953 FILLER_0_26_102
*954 FILLER_0_26_110
*955 FILLER_0_26_118
*956 FILLER_0_26_130
*957 FILLER_0_26_138
*958 FILLER_0_26_141
*959 FILLER_0_26_145
*960 FILLER_0_26_15
*961 FILLER_0_26_169
*962 FILLER_0_26_181
*963 FILLER_0_26_226
*964 FILLER_0_26_251
*965 FILLER_0_26_253
*966 FILLER_0_26_265
*967 FILLER_0_26_27
*968 FILLER_0_26_287
*969 FILLER_0_26_29
*970 FILLER_0_26_299
*971 FILLER_0_26_3
*972 FILLER_0_26_307
*973 FILLER_0_26_309
*974 FILLER_0_26_315
*975 FILLER_0_26_329
*976 FILLER_0_26_41
*977 FILLER_0_26_53
*978 FILLER_0_26_61
*979 FILLER_0_26_73
*980 FILLER_0_26_79
*981 FILLER_0_26_83
*982 FILLER_0_26_90
*983 FILLER_0_27_103
*984 FILLER_0_27_122
*985 FILLER_0_27_148
*986 FILLER_0_27_15
*987 FILLER_0_27_169
*988 FILLER_0_27_180
*989 FILLER_0_27_197
*990 FILLER_0_27_219
*991 FILLER_0_27_223
*992 FILLER_0_27_253
*993 FILLER_0_27_261
*994 FILLER_0_27_27
*995 FILLER_0_27_271
*996 FILLER_0_27_279
*997 FILLER_0_27_285
*998 FILLER_0_27_3
*999 FILLER_0_27_304
*1000 FILLER_0_27_326
*1001 FILLER_0_27_334
*1002 FILLER_0_27_39
*1003 FILLER_0_27_51
*1004 FILLER_0_27_55
*1005 FILLER_0_27_57
*1006 FILLER_0_27_62
*1007 FILLER_0_27_97
*1008 FILLER_0_28_123
*1009 FILLER_0_28_141
*1010 FILLER_0_28_15
*1011 FILLER_0_28_174
*1012 FILLER_0_28_186
*1013 FILLER_0_28_194
*1014 FILLER_0_28_212
*1015 FILLER_0_28_224
*1016 FILLER_0_28_236
*1017 FILLER_0_28_245
*1018 FILLER_0_28_251
*1019 FILLER_0_28_253
*1020 FILLER_0_28_27
*1021 FILLER_0_28_280
*1022 FILLER_0_28_29
*1023 FILLER_0_28_3
*1024 FILLER_0_28_309
*1025 FILLER_0_28_331
*1026 FILLER_0_28_41
*1027 FILLER_0_28_85
*1028 FILLER_0_29_105
*1029 FILLER_0_29_111
*1030 FILLER_0_29_113
*1031 FILLER_0_29_125
*1032 FILLER_0_29_146
*1033 FILLER_0_29_15
*1034 FILLER_0_29_169
*1035 FILLER_0_29_181
*1036 FILLER_0_29_193
*1037 FILLER_0_29_201
*1038 FILLER_0_29_208
*1039 FILLER_0_29_216
*1040 FILLER_0_29_220
*1041 FILLER_0_29_225
*1042 FILLER_0_29_229
*1043 FILLER_0_29_236
*1044 FILLER_0_29_248
*1045 FILLER_0_29_269
*1046 FILLER_0_29_27
*1047 FILLER_0_29_277
*1048 FILLER_0_29_281
*1049 FILLER_0_29_293
*1050 FILLER_0_29_3
*1051 FILLER_0_29_324
*1052 FILLER_0_29_332
*1053 FILLER_0_29_39
*1054 FILLER_0_29_51
*1055 FILLER_0_29_55
*1056 FILLER_0_29_57
*1057 FILLER_0_29_69
*1058 FILLER_0_29_81
*1059 FILLER_0_29_93
*1060 FILLER_0_2_109
*1061 FILLER_0_2_121
*1062 FILLER_0_2_133
*1063 FILLER_0_2_139
*1064 FILLER_0_2_141
*1065 FILLER_0_2_15
*1066 FILLER_0_2_153
*1067 FILLER_0_2_165
*1068 FILLER_0_2_177
*1069 FILLER_0_2_189
*1070 FILLER_0_2_195
*1071 FILLER_0_2_197
*1072 FILLER_0_2_209
*1073 FILLER_0_2_221
*1074 FILLER_0_2_233
*1075 FILLER_0_2_245
*1076 FILLER_0_2_251
*1077 FILLER_0_2_253
*1078 FILLER_0_2_265
*1079 FILLER_0_2_27
*1080 FILLER_0_2_277
*1081 FILLER_0_2_289
*1082 FILLER_0_2_29
*1083 FILLER_0_2_3
*1084 FILLER_0_2_301
*1085 FILLER_0_2_307
*1086 FILLER_0_2_309
*1087 FILLER_0_2_321
*1088 FILLER_0_2_333
*1089 FILLER_0_2_41
*1090 FILLER_0_2_53
*1091 FILLER_0_2_65
*1092 FILLER_0_2_77
*1093 FILLER_0_2_83
*1094 FILLER_0_2_85
*1095 FILLER_0_2_97
*1096 FILLER_0_30_109
*1097 FILLER_0_30_121
*1098 FILLER_0_30_133
*1099 FILLER_0_30_138
*1100 FILLER_0_30_141
*1101 FILLER_0_30_15
*1102 FILLER_0_30_153
*1103 FILLER_0_30_165
*1104 FILLER_0_30_171
*1105 FILLER_0_30_183
*1106 FILLER_0_30_195
*1107 FILLER_0_30_237
*1108 FILLER_0_30_245
*1109 FILLER_0_30_253
*1110 FILLER_0_30_257
*1111 FILLER_0_30_27
*1112 FILLER_0_30_284
*1113 FILLER_0_30_29
*1114 FILLER_0_30_292
*1115 FILLER_0_30_3
*1116 FILLER_0_30_304
*1117 FILLER_0_30_309
*1118 FILLER_0_30_316
*1119 FILLER_0_30_328
*1120 FILLER_0_30_334
*1121 FILLER_0_30_41
*1122 FILLER_0_30_53
*1123 FILLER_0_30_79
*1124 FILLER_0_30_83
*1125 FILLER_0_30_85
*1126 FILLER_0_30_97
*1127 FILLER_0_31_111
*1128 FILLER_0_31_113
*1129 FILLER_0_31_125
*1130 FILLER_0_31_129
*1131 FILLER_0_31_133
*1132 FILLER_0_31_145
*1133 FILLER_0_31_15
*1134 FILLER_0_31_157
*1135 FILLER_0_31_189
*1136 FILLER_0_31_193
*1137 FILLER_0_31_214
*1138 FILLER_0_31_222
*1139 FILLER_0_31_225
*1140 FILLER_0_31_233
*1141 FILLER_0_31_262
*1142 FILLER_0_31_266
*1143 FILLER_0_31_27
*1144 FILLER_0_31_274
*1145 FILLER_0_31_3
*1146 FILLER_0_31_301
*1147 FILLER_0_31_324
*1148 FILLER_0_31_332
*1149 FILLER_0_31_39
*1150 FILLER_0_31_51
*1151 FILLER_0_31_55
*1152 FILLER_0_31_57
*1153 FILLER_0_31_91
*1154 FILLER_0_32_122
*1155 FILLER_0_32_15
*1156 FILLER_0_32_155
*1157 FILLER_0_32_161
*1158 FILLER_0_32_192
*1159 FILLER_0_32_211
*1160 FILLER_0_32_217
*1161 FILLER_0_32_225
*1162 FILLER_0_32_250
*1163 FILLER_0_32_262
*1164 FILLER_0_32_27
*1165 FILLER_0_32_274
*1166 FILLER_0_32_282
*1167 FILLER_0_32_29
*1168 FILLER_0_32_3
*1169 FILLER_0_32_303
*1170 FILLER_0_32_307
*1171 FILLER_0_32_329
*1172 FILLER_0_32_41
*1173 FILLER_0_32_53
*1174 FILLER_0_32_62
*1175 FILLER_0_33_102
*1176 FILLER_0_33_106
*1177 FILLER_0_33_113
*1178 FILLER_0_33_125
*1179 FILLER_0_33_148
*1180 FILLER_0_33_15
*1181 FILLER_0_33_160
*1182 FILLER_0_33_190
*1183 FILLER_0_33_198
*1184 FILLER_0_33_210
*1185 FILLER_0_33_222
*1186 FILLER_0_33_225
*1187 FILLER_0_33_237
*1188 FILLER_0_33_243
*1189 FILLER_0_33_247
*1190 FILLER_0_33_258
*1191 FILLER_0_33_27
*1192 FILLER_0_33_281
*1193 FILLER_0_33_293
*1194 FILLER_0_33_3
*1195 FILLER_0_33_305
*1196 FILLER_0_33_329
*1197 FILLER_0_33_39
*1198 FILLER_0_33_51
*1199 FILLER_0_33_55
*1200 FILLER_0_33_57
*1201 FILLER_0_33_69
*1202 FILLER_0_33_73
*1203 FILLER_0_33_86
*1204 FILLER_0_33_98
*1205 FILLER_0_34_118
*1206 FILLER_0_34_130
*1207 FILLER_0_34_134
*1208 FILLER_0_34_15
*1209 FILLER_0_34_162
*1210 FILLER_0_34_174
*1211 FILLER_0_34_178
*1212 FILLER_0_34_190
*1213 FILLER_0_34_197
*1214 FILLER_0_34_217
*1215 FILLER_0_34_229
*1216 FILLER_0_34_241
*1217 FILLER_0_34_249
*1218 FILLER_0_34_253
*1219 FILLER_0_34_262
*1220 FILLER_0_34_27
*1221 FILLER_0_34_274
*1222 FILLER_0_34_29
*1223 FILLER_0_34_293
*1224 FILLER_0_34_3
*1225 FILLER_0_34_305
*1226 FILLER_0_34_309
*1227 FILLER_0_34_316
*1228 FILLER_0_34_324
*1229 FILLER_0_34_332
*1230 FILLER_0_34_41
*1231 FILLER_0_34_53
*1232 FILLER_0_34_65
*1233 FILLER_0_34_77
*1234 FILLER_0_34_83
*1235 FILLER_0_34_85
*1236 FILLER_0_34_98
*1237 FILLER_0_35_109
*1238 FILLER_0_35_113
*1239 FILLER_0_35_125
*1240 FILLER_0_35_15
*1241 FILLER_0_35_164
*1242 FILLER_0_35_169
*1243 FILLER_0_35_173
*1244 FILLER_0_35_195
*1245 FILLER_0_35_217
*1246 FILLER_0_35_223
*1247 FILLER_0_35_232
*1248 FILLER_0_35_244
*1249 FILLER_0_35_252
*1250 FILLER_0_35_258
*1251 FILLER_0_35_264
*1252 FILLER_0_35_27
*1253 FILLER_0_35_276
*1254 FILLER_0_35_288
*1255 FILLER_0_35_3
*1256 FILLER_0_35_314
*1257 FILLER_0_35_326
*1258 FILLER_0_35_334
*1259 FILLER_0_35_39
*1260 FILLER_0_35_51
*1261 FILLER_0_35_55
*1262 FILLER_0_35_57
*1263 FILLER_0_35_75
*1264 FILLER_0_36_124
*1265 FILLER_0_36_138
*1266 FILLER_0_36_15
*1267 FILLER_0_36_161
*1268 FILLER_0_36_194
*1269 FILLER_0_36_197
*1270 FILLER_0_36_201
*1271 FILLER_0_36_211
*1272 FILLER_0_36_215
*1273 FILLER_0_36_223
*1274 FILLER_0_36_231
*1275 FILLER_0_36_27
*1276 FILLER_0_36_29
*1277 FILLER_0_36_3
*1278 FILLER_0_36_304
*1279 FILLER_0_36_309
*1280 FILLER_0_36_319
*1281 FILLER_0_36_331
*1282 FILLER_0_36_41
*1283 FILLER_0_36_53
*1284 FILLER_0_37_110
*1285 FILLER_0_37_113
*1286 FILLER_0_37_121
*1287 FILLER_0_37_138
*1288 FILLER_0_37_145
*1289 FILLER_0_37_15
*1290 FILLER_0_37_157
*1291 FILLER_0_37_169
*1292 FILLER_0_37_193
*1293 FILLER_0_37_197
*1294 FILLER_0_37_217
*1295 FILLER_0_37_223
*1296 FILLER_0_37_225
*1297 FILLER_0_37_27
*1298 FILLER_0_37_272
*1299 FILLER_0_37_281
*1300 FILLER_0_37_296
*1301 FILLER_0_37_3
*1302 FILLER_0_37_300
*1303 FILLER_0_37_328
*1304 FILLER_0_37_334
*1305 FILLER_0_37_39
*1306 FILLER_0_37_51
*1307 FILLER_0_37_55
*1308 FILLER_0_37_57
*1309 FILLER_0_37_63
*1310 FILLER_0_37_67
*1311 FILLER_0_37_77
*1312 FILLER_0_37_83
*1313 FILLER_0_38_10
*1314 FILLER_0_38_103
*1315 FILLER_0_38_110
*1316 FILLER_0_38_113
*1317 FILLER_0_38_118
*1318 FILLER_0_38_122
*1319 FILLER_0_38_126
*1320 FILLER_0_38_130
*1321 FILLER_0_38_134
*1322 FILLER_0_38_14
*1323 FILLER_0_38_144
*1324 FILLER_0_38_150
*1325 FILLER_0_38_162
*1326 FILLER_0_38_166
*1327 FILLER_0_38_169
*1328 FILLER_0_38_175
*1329 FILLER_0_38_18
*1330 FILLER_0_38_182
*1331 FILLER_0_38_194
*1332 FILLER_0_38_197
*1333 FILLER_0_38_207
*1334 FILLER_0_38_219
*1335 FILLER_0_38_22
*1336 FILLER_0_38_223
*1337 FILLER_0_38_225
*1338 FILLER_0_38_237
*1339 FILLER_0_38_256
*1340 FILLER_0_38_281
*1341 FILLER_0_38_287
*1342 FILLER_0_38_294
*1343 FILLER_0_38_298
*1344 FILLER_0_38_302
*1345 FILLER_0_38_312
*1346 FILLER_0_38_32
*1347 FILLER_0_38_324
*1348 FILLER_0_38_332
*1349 FILLER_0_38_38
*1350 FILLER_0_38_42
*1351 FILLER_0_38_46
*1352 FILLER_0_38_50
*1353 FILLER_0_38_54
*1354 FILLER_0_38_57
*1355 FILLER_0_38_6
*1356 FILLER_0_38_62
*1357 FILLER_0_38_66
*1358 FILLER_0_38_70
*1359 FILLER_0_38_74
*1360 FILLER_0_38_78
*1361 FILLER_0_38_88
*1362 FILLER_0_38_94
*1363 FILLER_0_3_105
*1364 FILLER_0_3_111
*1365 FILLER_0_3_113
*1366 FILLER_0_3_125
*1367 FILLER_0_3_137
*1368 FILLER_0_3_149
*1369 FILLER_0_3_15
*1370 FILLER_0_3_161
*1371 FILLER_0_3_167
*1372 FILLER_0_3_169
*1373 FILLER_0_3_181
*1374 FILLER_0_3_193
*1375 FILLER_0_3_205
*1376 FILLER_0_3_217
*1377 FILLER_0_3_223
*1378 FILLER_0_3_225
*1379 FILLER_0_3_237
*1380 FILLER_0_3_249
*1381 FILLER_0_3_261
*1382 FILLER_0_3_27
*1383 FILLER_0_3_273
*1384 FILLER_0_3_279
*1385 FILLER_0_3_281
*1386 FILLER_0_3_293
*1387 FILLER_0_3_3
*1388 FILLER_0_3_305
*1389 FILLER_0_3_317
*1390 FILLER_0_3_329
*1391 FILLER_0_3_39
*1392 FILLER_0_3_51
*1393 FILLER_0_3_55
*1394 FILLER_0_3_57
*1395 FILLER_0_3_69
*1396 FILLER_0_3_81
*1397 FILLER_0_3_93
*1398 FILLER_0_4_109
*1399 FILLER_0_4_121
*1400 FILLER_0_4_133
*1401 FILLER_0_4_139
*1402 FILLER_0_4_141
*1403 FILLER_0_4_15
*1404 FILLER_0_4_153
*1405 FILLER_0_4_165
*1406 FILLER_0_4_177
*1407 FILLER_0_4_189
*1408 FILLER_0_4_195
*1409 FILLER_0_4_197
*1410 FILLER_0_4_209
*1411 FILLER_0_4_221
*1412 FILLER_0_4_233
*1413 FILLER_0_4_245
*1414 FILLER_0_4_251
*1415 FILLER_0_4_253
*1416 FILLER_0_4_265
*1417 FILLER_0_4_27
*1418 FILLER_0_4_277
*1419 FILLER_0_4_289
*1420 FILLER_0_4_29
*1421 FILLER_0_4_3
*1422 FILLER_0_4_301
*1423 FILLER_0_4_307
*1424 FILLER_0_4_309
*1425 FILLER_0_4_321
*1426 FILLER_0_4_333
*1427 FILLER_0_4_41
*1428 FILLER_0_4_53
*1429 FILLER_0_4_65
*1430 FILLER_0_4_77
*1431 FILLER_0_4_83
*1432 FILLER_0_4_85
*1433 FILLER_0_4_97
*1434 FILLER_0_5_105
*1435 FILLER_0_5_111
*1436 FILLER_0_5_113
*1437 FILLER_0_5_125
*1438 FILLER_0_5_137
*1439 FILLER_0_5_149
*1440 FILLER_0_5_15
*1441 FILLER_0_5_161
*1442 FILLER_0_5_167
*1443 FILLER_0_5_169
*1444 FILLER_0_5_181
*1445 FILLER_0_5_193
*1446 FILLER_0_5_205
*1447 FILLER_0_5_217
*1448 FILLER_0_5_223
*1449 FILLER_0_5_225
*1450 FILLER_0_5_237
*1451 FILLER_0_5_249
*1452 FILLER_0_5_261
*1453 FILLER_0_5_27
*1454 FILLER_0_5_273
*1455 FILLER_0_5_279
*1456 FILLER_0_5_281
*1457 FILLER_0_5_293
*1458 FILLER_0_5_3
*1459 FILLER_0_5_305
*1460 FILLER_0_5_317
*1461 FILLER_0_5_329
*1462 FILLER_0_5_39
*1463 FILLER_0_5_51
*1464 FILLER_0_5_55
*1465 FILLER_0_5_57
*1466 FILLER_0_5_69
*1467 FILLER_0_5_81
*1468 FILLER_0_5_93
*1469 FILLER_0_6_109
*1470 FILLER_0_6_121
*1471 FILLER_0_6_133
*1472 FILLER_0_6_139
*1473 FILLER_0_6_141
*1474 FILLER_0_6_15
*1475 FILLER_0_6_153
*1476 FILLER_0_6_165
*1477 FILLER_0_6_177