*SPEF "ieee 1481-1999"
*DESIGN "tt_um_cm_1"
*DATE "17:27:31 Saturday June 01, 2024"
*VENDOR "The OpenROAD Project"
*PROGRAM "OpenROAD"
*VERSION "da0053d7b0014ab9c87ea148875ff6c2a0f9b658"
*DESIGN_FLOW "NAME_SCOPE LOCAL" "PIN_CAP NONE"
*DIVIDER /
*DELIMITER :
*BUS_DELIMITER []
*T_UNIT 1 NS
*C_UNIT 1 PF
*R_UNIT 1 OHM
*L_UNIT 1 HENRY

*NAME_MAP
*3 clk
*4 ena
*5 rst_n
*6 ui_in[0]
*7 ui_in[1]
*8 ui_in[2]
*9 ui_in[3]
*10 ui_in[4]
*11 ui_in[5]
*12 ui_in[6]
*13 ui_in[7]
*14 uio_in[0]
*15 uio_in[1]
*16 uio_in[2]
*17 uio_in[3]
*18 uio_in[4]
*19 uio_in[5]
*20 uio_in[6]
*21 uio_in[7]
*22 net3
*23 net4
*24 net5
*25 net6
*26 net7
*27 net8
*28 net9
*29 net10
*30 net11
*31 net12
*32 net13
*33 net14
*34 net15
*35 net16
*36 net17
*37 net18
*38 uo_out[0]
*39 uo_out[1]
*40 uo_out[2]
*41 uo_out[3]
*42 uo_out[4]
*43 uo_out[5]
*44 uo_out[6]
*45 uo_out[7]
*46 _00_
*47 _01_
*48 _02_
*49 _03_
*50 _04_
*51 _05_
*52 _06_
*53 _07_
*54 _08_
*55 _09_
*56 _10_
*57 _11_
*58 _12_
*59 _13_
*60 _14_
*61 _15_
*62 _16_
*63 _17_
*64 _18_
*65 _19_
*66 _20_
*67 _21_
*68 _22_
*69 _23_
*70 clknet_0_clk
*71 clknet_1_0__leaf_clk
*72 clknet_1_1__leaf_clk
*73 mat01_out\[0\]
*74 mat01_out\[1\]
*75 mat01_out\[2\]
*76 mat01_out\[3\]
*77 mat01_out\[4\]
*78 mat01_out\[5\]
*79 mat01_out\[6\]
*80 mat01_out\[7\]
*81 mat23_out\[0\]
*82 mat23_out\[1\]
*83 mat23_out\[2\]
*84 mat23_out\[3\]
*85 mat23_out\[4\]
*86 mat23_out\[5\]
*87 mat23_out\[6\]
*88 mat23_out\[7\]
*89 net1
*90 net2
*91 FILLER_0_0_109
*92 FILLER_0_0_113
*93 FILLER_0_0_125
*94 FILLER_0_0_137
*95 FILLER_0_0_141
*96 FILLER_0_0_15
*97 FILLER_0_0_153
*98 FILLER_0_0_165
*99 FILLER_0_0_169
*100 FILLER_0_0_181
*101 FILLER_0_0_193
*102 FILLER_0_0_197
*103 FILLER_0_0_209
*104 FILLER_0_0_221
*105 FILLER_0_0_225
*106 FILLER_0_0_237
*107 FILLER_0_0_249
*108 FILLER_0_0_253
*109 FILLER_0_0_265
*110 FILLER_0_0_27
*111 FILLER_0_0_277
*112 FILLER_0_0_281
*113 FILLER_0_0_29
*114 FILLER_0_0_293
*115 FILLER_0_0_3
*116 FILLER_0_0_305
*117 FILLER_0_0_309
*118 FILLER_0_0_321
*119 FILLER_0_0_333
*120 FILLER_0_0_41
*121 FILLER_0_0_53
*122 FILLER_0_0_57
*123 FILLER_0_0_69
*124 FILLER_0_0_81
*125 FILLER_0_0_85
*126 FILLER_0_0_97
*127 FILLER_0_10_109
*128 FILLER_0_10_15
*129 FILLER_0_10_182
*130 FILLER_0_10_194
*131 FILLER_0_10_206
*132 FILLER_0_10_208
*133 FILLER_0_10_220
*134 FILLER_0_10_232
*135 FILLER_0_10_244
*136 FILLER_0_10_256
*137 FILLER_0_10_262
*138 FILLER_0_10_264
*139 FILLER_0_10_27
*140 FILLER_0_10_276
*141 FILLER_0_10_288
*142 FILLER_0_10_29
*143 FILLER_0_10_3
*144 FILLER_0_10_300
*145 FILLER_0_10_312
*146 FILLER_0_10_318
*147 FILLER_0_10_320
*148 FILLER_0_10_332
*149 FILLER_0_10_41
*150 FILLER_0_10_53
*151 FILLER_0_10_65
*152 FILLER_0_10_77
*153 FILLER_0_10_83
*154 FILLER_0_10_85
*155 FILLER_0_10_97
*156 FILLER_0_11_105
*157 FILLER_0_11_111
*158 FILLER_0_11_15
*159 FILLER_0_11_182
*160 FILLER_0_11_194
*161 FILLER_0_11_206
*162 FILLER_0_11_218
*163 FILLER_0_11_230
*164 FILLER_0_11_234
*165 FILLER_0_11_236
*166 FILLER_0_11_248
*167 FILLER_0_11_260
*168 FILLER_0_11_27
*169 FILLER_0_11_272
*170 FILLER_0_11_284
*171 FILLER_0_11_290
*172 FILLER_0_11_292
*173 FILLER_0_11_3
*174 FILLER_0_11_304
*175 FILLER_0_11_316
*176 FILLER_0_11_328
*177 FILLER_0_11_334
*178 FILLER_0_11_39
*179 FILLER_0_11_51
*180 FILLER_0_11_55
*181 FILLER_0_11_57
*182 FILLER_0_11_69
*183 FILLER_0_11_81
*184 FILLER_0_11_93
*185 FILLER_0_12_109
*186 FILLER_0_12_15
*187 FILLER_0_12_182
*188 FILLER_0_12_194
*189 FILLER_0_12_206
*190 FILLER_0_12_208
*191 FILLER_0_12_220
*192 FILLER_0_12_232
*193 FILLER_0_12_244
*194 FILLER_0_12_256
*195 FILLER_0_12_262
*196 FILLER_0_12_264
*197 FILLER_0_12_27
*198 FILLER_0_12_276
*199 FILLER_0_12_288
*200 FILLER_0_12_29
*201 FILLER_0_12_3
*202 FILLER_0_12_300
*203 FILLER_0_12_312
*204 FILLER_0_12_318
*205 FILLER_0_12_320
*206 FILLER_0_12_332
*207 FILLER_0_12_41
*208 FILLER_0_12_53
*209 FILLER_0_12_65
*210 FILLER_0_12_77
*211 FILLER_0_12_83
*212 FILLER_0_12_85
*213 FILLER_0_12_97
*214 FILLER_0_13_105
*215 FILLER_0_13_111
*216 FILLER_0_13_15
*217 FILLER_0_13_182
*218 FILLER_0_13_194
*219 FILLER_0_13_206
*220 FILLER_0_13_218
*221 FILLER_0_13_230
*222 FILLER_0_13_234
*223 FILLER_0_13_236
*224 FILLER_0_13_248
*225 FILLER_0_13_260
*226 FILLER_0_13_27
*227 FILLER_0_13_272
*228 FILLER_0_13_284
*229 FILLER_0_13_290
*230 FILLER_0_13_292
*231 FILLER_0_13_3
*232 FILLER_0_13_304
*233 FILLER_0_13_316
*234 FILLER_0_13_328
*235 FILLER_0_13_334
*236 FILLER_0_13_39
*237 FILLER_0_13_51
*238 FILLER_0_13_55
*239 FILLER_0_13_57
*240 FILLER_0_13_69
*241 FILLER_0_13_81
*242 FILLER_0_13_93
*243 FILLER_0_14_109
*244 FILLER_0_14_15
*245 FILLER_0_14_182
*246 FILLER_0_14_194
*247 FILLER_0_14_206
*248 FILLER_0_14_208
*249 FILLER_0_14_220
*250 FILLER_0_14_232
*251 FILLER_0_14_244
*252 FILLER_0_14_256
*253 FILLER_0_14_262
*254 FILLER_0_14_264
*255 FILLER_0_14_27
*256 FILLER_0_14_276
*257 FILLER_0_14_288
*258 FILLER_0_14_29
*259 FILLER_0_14_3
*260 FILLER_0_14_300
*261 FILLER_0_14_312
*262 FILLER_0_14_318
*263 FILLER_0_14_320
*264 FILLER_0_14_332
*265 FILLER_0_14_41
*266 FILLER_0_14_53
*267 FILLER_0_14_65
*268 FILLER_0_14_77
*269 FILLER_0_14_83
*270 FILLER_0_14_85
*271 FILLER_0_14_97
*272 FILLER_0_15_105
*273 FILLER_0_15_111
*274 FILLER_0_15_15
*275 FILLER_0_15_182
*276 FILLER_0_15_194
*277 FILLER_0_15_206
*278 FILLER_0_15_218
*279 FILLER_0_15_230
*280 FILLER_0_15_234
*281 FILLER_0_15_236
*282 FILLER_0_15_248
*283 FILLER_0_15_260
*284 FILLER_0_15_27
*285 FILLER_0_15_272
*286 FILLER_0_15_284
*287 FILLER_0_15_290
*288 FILLER_0_15_292
*289 FILLER_0_15_3
*290 FILLER_0_15_304
*291 FILLER_0_15_316
*292 FILLER_0_15_328
*293 FILLER_0_15_334
*294 FILLER_0_15_39
*295 FILLER_0_15_51
*296 FILLER_0_15_55
*297 FILLER_0_15_57
*298 FILLER_0_15_69
*299 FILLER_0_15_81
*300 FILLER_0_15_93
*301 FILLER_0_16_109
*302 FILLER_0_16_15
*303 FILLER_0_16_182
*304 FILLER_0_16_194
*305 FILLER_0_16_206
*306 FILLER_0_16_208
*307 FILLER_0_16_220
*308 FILLER_0_16_232
*309 FILLER_0_16_244
*310 FILLER_0_16_256
*311 FILLER_0_16_262
*312 FILLER_0_16_264
*313 FILLER_0_16_27
*314 FILLER_0_16_276
*315 FILLER_0_16_288
*316 FILLER_0_16_29
*317 FILLER_0_16_3
*318 FILLER_0_16_300
*319 FILLER_0_16_312
*320 FILLER_0_16_318
*321 FILLER_0_16_320
*322 FILLER_0_16_332
*323 FILLER_0_16_41
*324 FILLER_0_16_53
*325 FILLER_0_16_65
*326 FILLER_0_16_77
*327 FILLER_0_16_83
*328 FILLER_0_16_85
*329 FILLER_0_16_97
*330 FILLER_0_17_101
*331 FILLER_0_17_15
*332 FILLER_0_17_182
*333 FILLER_0_17_194
*334 FILLER_0_17_206
*335 FILLER_0_17_218
*336 FILLER_0_17_230
*337 FILLER_0_17_234
*338 FILLER_0_17_236
*339 FILLER_0_17_248
*340 FILLER_0_17_260
*341 FILLER_0_17_27
*342 FILLER_0_17_272
*343 FILLER_0_17_284
*344 FILLER_0_17_290
*345 FILLER_0_17_292
*346 FILLER_0_17_3
*347 FILLER_0_17_304
*348 FILLER_0_17_316
*349 FILLER_0_17_328
*350 FILLER_0_17_334
*351 FILLER_0_17_39
*352 FILLER_0_17_51
*353 FILLER_0_17_55
*354 FILLER_0_17_57
*355 FILLER_0_17_69
*356 FILLER_0_17_81
*357 FILLER_0_17_93
*358 FILLER_0_18_15
*359 FILLER_0_18_182
*360 FILLER_0_18_194
*361 FILLER_0_18_206
*362 FILLER_0_18_208
*363 FILLER_0_18_220
*364 FILLER_0_18_232
*365 FILLER_0_18_244
*366 FILLER_0_18_256
*367 FILLER_0_18_262
*368 FILLER_0_18_264
*369 FILLER_0_18_27
*370 FILLER_0_18_276
*371 FILLER_0_18_288
*372 FILLER_0_18_29
*373 FILLER_0_18_3
*374 FILLER_0_18_300
*375 FILLER_0_18_312
*376 FILLER_0_18_318
*377 FILLER_0_18_320
*378 FILLER_0_18_332
*379 FILLER_0_18_41
*380 FILLER_0_18_53
*381 FILLER_0_18_65
*382 FILLER_0_18_77
*383 FILLER_0_18_83
*384 FILLER_0_18_85
*385 FILLER_0_18_97
*386 FILLER_0_19_101
*387 FILLER_0_19_15
*388 FILLER_0_19_182
*389 FILLER_0_19_194
*390 FILLER_0_19_206
*391 FILLER_0_19_218
*392 FILLER_0_19_230
*393 FILLER_0_19_234
*394 FILLER_0_19_236
*395 FILLER_0_19_248
*396 FILLER_0_19_260
*397 FILLER_0_19_27
*398 FILLER_0_19_272
*399 FILLER_0_19_284
*400 FILLER_0_19_290
*401 FILLER_0_19_292
*402 FILLER_0_19_3
*403 FILLER_0_19_304
*404 FILLER_0_19_316
*405 FILLER_0_19_328
*406 FILLER_0_19_334
*407 FILLER_0_19_39
*408 FILLER_0_19_51
*409 FILLER_0_19_55
*410 FILLER_0_19_57
*411 FILLER_0_19_69
*412 FILLER_0_19_81
*413 FILLER_0_19_93
*414 FILLER_0_1_105
*415 FILLER_0_1_111
*416 FILLER_0_1_15
*417 FILLER_0_1_182
*418 FILLER_0_1_194
*419 FILLER_0_1_206
*420 FILLER_0_1_218
*421 FILLER_0_1_230
*422 FILLER_0_1_234
*423 FILLER_0_1_236
*424 FILLER_0_1_248
*425 FILLER_0_1_260
*426 FILLER_0_1_27
*427 FILLER_0_1_272
*428 FILLER_0_1_284
*429 FILLER_0_1_290
*430 FILLER_0_1_292
*431 FILLER_0_1_3
*432 FILLER_0_1_304
*433 FILLER_0_1_316
*434 FILLER_0_1_328
*435 FILLER_0_1_334
*436 FILLER_0_1_39
*437 FILLER_0_1_51
*438 FILLER_0_1_55
*439 FILLER_0_1_57
*440 FILLER_0_1_69
*441 FILLER_0_1_81
*442 FILLER_0_1_93
*443 FILLER_0_20_15
*444 FILLER_0_20_182
*445 FILLER_0_20_194
*446 FILLER_0_20_206
*447 FILLER_0_20_208
*448 FILLER_0_20_220
*449 FILLER_0_20_232
*450 FILLER_0_20_244
*451 FILLER_0_20_256
*452 FILLER_0_20_262
*453 FILLER_0_20_264
*454 FILLER_0_20_27
*455 FILLER_0_20_276
*456 FILLER_0_20_288
*457 FILLER_0_20_29
*458 FILLER_0_20_3
*459 FILLER_0_20_300
*460 FILLER_0_20_312
*461 FILLER_0_20_318
*462 FILLER_0_20_320
*463 FILLER_0_20_332
*464 FILLER_0_20_41
*465 FILLER_0_20_53
*466 FILLER_0_20_65
*467 FILLER_0_20_77
*468 FILLER_0_20_83
*469 FILLER_0_20_85
*470 FILLER_0_20_97
*471 FILLER_0_21_105
*472 FILLER_0_21_111
*473 FILLER_0_21_15
*474 FILLER_0_21_182
*475 FILLER_0_21_194
*476 FILLER_0_21_206
*477 FILLER_0_21_218
*478 FILLER_0_21_230
*479 FILLER_0_21_234
*480 FILLER_0_21_236
*481 FILLER_0_21_248
*482 FILLER_0_21_260
*483 FILLER_0_21_27
*484 FILLER_0_21_272
*485 FILLER_0_21_284
*486 FILLER_0_21_290
*487 FILLER_0_21_292
*488 FILLER_0_21_3
*489 FILLER_0_21_304
*490 FILLER_0_21_316
*491 FILLER_0_21_328
*492 FILLER_0_21_334
*493 FILLER_0_21_39
*494 FILLER_0_21_51
*495 FILLER_0_21_55
*496 FILLER_0_21_57
*497 FILLER_0_21_69
*498 FILLER_0_21_81
*499 FILLER_0_21_93
*500 FILLER_0_22_109
*501 FILLER_0_22_15
*502 FILLER_0_22_182
*503 FILLER_0_22_194
*504 FILLER_0_22_206
*505 FILLER_0_22_208
*506 FILLER_0_22_220
*507 FILLER_0_22_232
*508 FILLER_0_22_244
*509 FILLER_0_22_256
*510 FILLER_0_22_262
*511 FILLER_0_22_264
*512 FILLER_0_22_27
*513 FILLER_0_22_276
*514 FILLER_0_22_288
*515 FILLER_0_22_29
*516 FILLER_0_22_3
*517 FILLER_0_22_300
*518 FILLER_0_22_312
*519 FILLER_0_22_318
*520 FILLER_0_22_320
*521 FILLER_0_22_332
*522 FILLER_0_22_41
*523 FILLER_0_22_53
*524 FILLER_0_22_65
*525 FILLER_0_22_77
*526 FILLER_0_22_83
*527 FILLER_0_22_85
*528 FILLER_0_22_97
*529 FILLER_0_23_101
*530 FILLER_0_23_15
*531 FILLER_0_23_182
*532 FILLER_0_23_194
*533 FILLER_0_23_206
*534 FILLER_0_23_218
*535 FILLER_0_23_230
*536 FILLER_0_23_234
*537 FILLER_0_23_236
*538 FILLER_0_23_248
*539 FILLER_0_23_260
*540 FILLER_0_23_27
*541 FILLER_0_23_272
*542 FILLER_0_23_284
*543 FILLER_0_23_290
*544 FILLER_0_23_292
*545 FILLER_0_23_3
*546 FILLER_0_23_304
*547 FILLER_0_23_316
*548 FILLER_0_23_328
*549 FILLER_0_23_334
*550 FILLER_0_23_39
*551 FILLER_0_23_51
*552 FILLER_0_23_55
*553 FILLER_0_23_57
*554 FILLER_0_23_69
*555 FILLER_0_23_81
*556 FILLER_0_23_93
*557 FILLER_0_24_15
*558 FILLER_0_24_182
*559 FILLER_0_24_194
*560 FILLER_0_24_206
*561 FILLER_0_24_208
*562 FILLER_0_24_220
*563 FILLER_0_24_232
*564 FILLER_0_24_244
*565 FILLER_0_24_256
*566 FILLER_0_24_262
*567 FILLER_0_24_264
*568 FILLER_0_24_27
*569 FILLER_0_24_276
*570 FILLER_0_24_288
*571 FILLER_0_24_29
*572 FILLER_0_24_3
*573 FILLER_0_24_300
*574 FILLER_0_24_312
*575 FILLER_0_24_318
*576 FILLER_0_24_320
*577 FILLER_0_24_332
*578 FILLER_0_24_41
*579 FILLER_0_24_53
*580 FILLER_0_24_65
*581 FILLER_0_24_77
*582 FILLER_0_24_83
*583 FILLER_0_24_85
*584 FILLER_0_24_97
*585 FILLER_0_25_105
*586 FILLER_0_25_111
*587 FILLER_0_25_15
*588 FILLER_0_25_191
*589 FILLER_0_25_203
*590 FILLER_0_25_215
*591 FILLER_0_25_227
*592 FILLER_0_25_236
*593 FILLER_0_25_248
*594 FILLER_0_25_260
*595 FILLER_0_25_27
*596 FILLER_0_25_272
*597 FILLER_0_25_284
*598 FILLER_0_25_290
*599 FILLER_0_25_292
*600 FILLER_0_25_3
*601 FILLER_0_25_304
*602 FILLER_0_25_316
*603 FILLER_0_25_328
*604 FILLER_0_25_334
*605 FILLER_0_25_39
*606 FILLER_0_25_51
*607 FILLER_0_25_55
*608 FILLER_0_25_57
*609 FILLER_0_25_69
*610 FILLER_0_25_81
*611 FILLER_0_25_93
*612 FILLER_0_26_15
*613 FILLER_0_26_182
*614 FILLER_0_26_194
*615 FILLER_0_26_206
*616 FILLER_0_26_208
*617 FILLER_0_26_220
*618 FILLER_0_26_232
*619 FILLER_0_26_244
*620 FILLER_0_26_256
*621 FILLER_0_26_262
*622 FILLER_0_26_264
*623 FILLER_0_26_27
*624 FILLER_0_26_276
*625 FILLER_0_26_288
*626 FILLER_0_26_29
*627 FILLER_0_26_3
*628 FILLER_0_26_300
*629 FILLER_0_26_312
*630 FILLER_0_26_318
*631 FILLER_0_26_320
*632 FILLER_0_26_332
*633 FILLER_0_26_41
*634 FILLER_0_26_53
*635 FILLER_0_26_65
*636 FILLER_0_26_77
*637 FILLER_0_26_83
*638 FILLER_0_26_85
*639 FILLER_0_26_97
*640 FILLER_0_27_105
*641 FILLER_0_27_111
*642 FILLER_0_27_15
*643 FILLER_0_27_182
*644 FILLER_0_27_194
*645 FILLER_0_27_206
*646 FILLER_0_27_218
*647 FILLER_0_27_230
*648 FILLER_0_27_234
*649 FILLER_0_27_236
*650 FILLER_0_27_248
*651 FILLER_0_27_260
*652 FILLER_0_27_27
*653 FILLER_0_27_272
*654 FILLER_0_27_284
*655 FILLER_0_27_290
*656 FILLER_0_27_292
*657 FILLER_0_27_3
*658 FILLER_0_27_304
*659 FILLER_0_27_316
*660 FILLER_0_27_328
*661 FILLER_0_27_334
*662 FILLER_0_27_39
*663 FILLER_0_27_51
*664 FILLER_0_27_55
*665 FILLER_0_27_57
*666 FILLER_0_27_69
*667 FILLER_0_27_81
*668 FILLER_0_27_93
*669 FILLER_0_28_109
*670 FILLER_0_28_15
*671 FILLER_0_28_182
*672 FILLER_0_28_194
*673 FILLER_0_28_206
*674 FILLER_0_28_208
*675 FILLER_0_28_220
*676 FILLER_0_28_232
*677 FILLER_0_28_244
*678 FILLER_0_28_256
*679 FILLER_0_28_262
*680 FILLER_0_28_264
*681 FILLER_0_28_27
*682 FILLER_0_28_276
*683 FILLER_0_28_288
*684 FILLER_0_28_29
*685 FILLER_0_28_3
*686 FILLER_0_28_300
*687 FILLER_0_28_312
*688 FILLER_0_28_318
*689 FILLER_0_28_320
*690 FILLER_0_28_332
*691 FILLER_0_28_41
*692 FILLER_0_28_53
*693 FILLER_0_28_65
*694 FILLER_0_28_77
*695 FILLER_0_28_83
*696 FILLER_0_28_85
*697 FILLER_0_28_97
*698 FILLER_0_29_105
*699 FILLER_0_29_111
*700 FILLER_0_29_15
*701 FILLER_0_29_182
*702 FILLER_0_29_194
*703 FILLER_0_29_206
*704 FILLER_0_29_218
*705 FILLER_0_29_230
*706 FILLER_0_29_234
*707 FILLER_0_29_236
*708 FILLER_0_29_248
*709 FILLER_0_29_260
*710 FILLER_0_29_27
*711 FILLER_0_29_272
*712 FILLER_0_29_284
*713 FILLER_0_29_290
*714 FILLER_0_29_292
*715 FILLER_0_29_3
*716 FILLER_0_29_304
*717 FILLER_0_29_316
*718 FILLER_0_29_328
*719 FILLER_0_29_334
*720 FILLER_0_29_39
*721 FILLER_0_29_51
*722 FILLER_0_29_55
*723 FILLER_0_29_57
*724 FILLER_0_29_69
*725 FILLER_0_29_81
*726 FILLER_0_29_93
*727 FILLER_0_2_109
*728 FILLER_0_2_15
*729 FILLER_0_2_182
*730 FILLER_0_2_194
*731 FILLER_0_2_206
*732 FILLER_0_2_208
*733 FILLER_0_2_220
*734 FILLER_0_2_232
*735 FILLER_0_2_244
*736 FILLER_0_2_256
*737 FILLER_0_2_262
*738 FILLER_0_2_264
*739 FILLER_0_2_27
*740 FILLER_0_2_276
*741 FILLER_0_2_288
*742 FILLER_0_2_29
*743 FILLER_0_2_3
*744 FILLER_0_2_300
*745 FILLER_0_2_312
*746 FILLER_0_2_318
*747 FILLER_0_2_320
*748 FILLER_0_2_332
*749 FILLER_0_2_41
*750 FILLER_0_2_53
*751 FILLER_0_2_65
*752 FILLER_0_2_77
*753 FILLER_0_2_83
*754 FILLER_0_2_85
*755 FILLER_0_2_97
*756 FILLER_0_30_109
*757 FILLER_0_30_15
*758 FILLER_0_30_182
*759 FILLER_0_30_194
*760 FILLER_0_30_206
*761 FILLER_0_30_208
*762 FILLER_0_30_220
*763 FILLER_0_30_232
*764 FILLER_0_30_244
*765 FILLER_0_30_256
*766 FILLER_0_30_262
*767 FILLER_0_30_264
*768 FILLER_0_30_27
*769 FILLER_0_30_276
*770 FILLER_0_30_288
*771 FILLER_0_30_29
*772 FILLER_0_30_3
*773 FILLER_0_30_300
*774 FILLER_0_30_312
*775 FILLER_0_30_318
*776 FILLER_0_30_320
*777 FILLER_0_30_332
*778 FILLER_0_30_41
*779 FILLER_0_30_53
*780 FILLER_0_30_65
*781 FILLER_0_30_77
*782 FILLER_0_30_83
*783 FILLER_0_30_85
*784 FILLER_0_30_97
*785 FILLER_0_31_109
*786 FILLER_0_31_113
*787 FILLER_0_31_125
*788 FILLER_0_31_133
*789 FILLER_0_31_141
*790 FILLER_0_31_15
*791 FILLER_0_31_153
*792 FILLER_0_31_165
*793 FILLER_0_31_169
*794 FILLER_0_31_181
*795 FILLER_0_31_193
*796 FILLER_0_31_197
*797 FILLER_0_31_209
*798 FILLER_0_31_221
*799 FILLER_0_31_225
*800 FILLER_0_31_237
*801 FILLER_0_31_249
*802 FILLER_0_31_253
*803 FILLER_0_31_265
*804 FILLER_0_31_27
*805 FILLER_0_31_277
*806 FILLER_0_31_281
*807 FILLER_0_31_29
*808 FILLER_0_31_293
*809 FILLER_0_31_3
*810 FILLER_0_31_305
*811 FILLER_0_31_309
*812 FILLER_0_31_321
*813 FILLER_0_31_333
*814 FILLER_0_31_41
*815 FILLER_0_31_53
*816 FILLER_0_31_57
*817 FILLER_0_31_69
*818 FILLER_0_31_81
*819 FILLER_0_31_85
*820 FILLER_0_31_97
*821 FILLER_0_32_109
*822 FILLER_0_32_117
*823 FILLER_0_32_123
*824 FILLER_0_32_129
*825 FILLER_0_32_137
*826 FILLER_0_32_146
*827 FILLER_0_32_15
*828 FILLER_0_32_158
*829 FILLER_0_32_166
*830 FILLER_0_32_178
*831 FILLER_0_32_190
*832 FILLER_0_32_197
*833 FILLER_0_32_209
*834 FILLER_0_32_221
*835 FILLER_0_32_233
*836 FILLER_0_32_245
*837 FILLER_0_32_251
*838 FILLER_0_32_253
*839 FILLER_0_32_265
*840 FILLER_0_32_27
*841 FILLER_0_32_277
*842 FILLER_0_32_289
*843 FILLER_0_32_29
*844 FILLER_0_32_3
*845 FILLER_0_32_301
*846 FILLER_0_32_307
*847 FILLER_0_32_309
*848 FILLER_0_32_321
*849 FILLER_0_32_333
*850 FILLER_0_32_41
*851 FILLER_0_32_53
*852 FILLER_0_32_65
*853 FILLER_0_32_77
*854 FILLER_0_32_83
*855 FILLER_0_32_85
*856 FILLER_0_32_97
*857 FILLER_0_33_105
*858 FILLER_0_33_111
*859 FILLER_0_33_113
*860 FILLER_0_33_125
*861 FILLER_0_33_144
*862 FILLER_0_33_15
*863 FILLER_0_33_151
*864 FILLER_0_33_155
*865 FILLER_0_33_159
*866 FILLER_0_33_167
*867 FILLER_0_33_169
*868 FILLER_0_33_181
*869 FILLER_0_33_193
*870 FILLER_0_33_205
*871 FILLER_0_33_217
*872 FILLER_0_33_223
*873 FILLER_0_33_225
*874 FILLER_0_33_237
*875 FILLER_0_33_249
*876 FILLER_0_33_261
*877 FILLER_0_33_27
*878 FILLER_0_33_273
*879 FILLER_0_33_279
*880 FILLER_0_33_281
*881 FILLER_0_33_293
*882 FILLER_0_33_3
*883 FILLER_0_33_305
*884 FILLER_0_33_317
*885 FILLER_0_33_329
*886 FILLER_0_33_39
*887 FILLER_0_33_51
*888 FILLER_0_33_55
*889 FILLER_0_33_57
*890 FILLER_0_33_69
*891 FILLER_0_33_81
*892 FILLER_0_33_93
*893 FILLER_0_34_109
*894 FILLER_0_34_121
*895 FILLER_0_34_125
*896 FILLER_0_34_129
*897 FILLER_0_34_133
*898 FILLER_0_34_139
*899 FILLER_0_34_141
*900 FILLER_0_34_147
*901 FILLER_0_34_15
*902 FILLER_0_34_172
*903 FILLER_0_34_184
*904 FILLER_0_34_197
*905 FILLER_0_34_209
*906 FILLER_0_34_221
*907 FILLER_0_34_233
*908 FILLER_0_34_245
*909 FILLER_0_34_251
*910 FILLER_0_34_253
*911 FILLER_0_34_265
*912 FILLER_0_34_27
*913 FILLER_0_34_277
*914 FILLER_0_34_289
*915 FILLER_0_34_29
*916 FILLER_0_34_3
*917 FILLER_0_34_301
*918 FILLER_0_34_307
*919 FILLER_0_34_309
*920 FILLER_0_34_321
*921 FILLER_0_34_333
*922 FILLER_0_34_41
*923 FILLER_0_34_53
*924 FILLER_0_34_65
*925 FILLER_0_34_77
*926 FILLER_0_34_83
*927 FILLER_0_34_85
*928 FILLER_0_34_97
*929 FILLER_0_35_105
*930 FILLER_0_35_111
*931 FILLER_0_35_113
*932 FILLER_0_35_15
*933 FILLER_0_35_167
*934 FILLER_0_35_186
*935 FILLER_0_35_198
*936 FILLER_0_35_210
*937 FILLER_0_35_222
*938 FILLER_0_35_225
*939 FILLER_0_35_237
*940 FILLER_0_35_249
*941 FILLER_0_35_261
*942 FILLER_0_35_27
*943 FILLER_0_35_273
*944 FILLER_0_35_279
*945 FILLER_0_35_281
*946 FILLER_0_35_293
*947 FILLER_0_35_3
*948 FILLER_0_35_305
*949 FILLER_0_35_317
*950 FILLER_0_35_329
*951 FILLER_0_35_39
*952 FILLER_0_35_51
*953 FILLER_0_35_55
*954 FILLER_0_35_57
*955 FILLER_0_35_69
*956 FILLER_0_35_81
*957 FILLER_0_35_93
*958 FILLER_0_36_109
*959 FILLER_0_36_121
*960 FILLER_0_36_133
*961 FILLER_0_36_139
*962 FILLER_0_36_141
*963 FILLER_0_36_15
*964 FILLER_0_36_164
*965 FILLER_0_36_172
*966 FILLER_0_36_194
*967 FILLER_0_36_197
*968 FILLER_0_36_209
*969 FILLER_0_36_221
*970 FILLER_0_36_233
*971 FILLER_0_36_245
*972 FILLER_0_36_251
*973 FILLER_0_36_253
*974 FILLER_0_36_265
*975 FILLER_0_36_27
*976 FILLER_0_36_277
*977 FILLER_0_36_289
*978 FILLER_0_36_29
*979 FILLER_0_36_3
*980 FILLER_0_36_301
*981 FILLER_0_36_307
*982 FILLER_0_36_309
*983 FILLER_0_36_321
*984 FILLER_0_36_333
*985 FILLER_0_36_41
*986 FILLER_0_36_53
*987 FILLER_0_36_65
*988 FILLER_0_36_77
*989 FILLER_0_36_83
*990 FILLER_0_36_85
*991 FILLER_0_36_97
*992 FILLER_0_37_105
*993 FILLER_0_37_111
*994 FILLER_0_37_113
*995 FILLER_0_37_15
*996 FILLER_0_37_154
*997 FILLER_0_37_166
*998 FILLER_0_37_169
*999 FILLER_0_37_181
*1000 FILLER_0_37_193
*1001 FILLER_0_37_205
*1002 FILLER_0_37_217
*1003 FILLER_0_37_223
*1004 FILLER_0_37_225
*1005 FILLER_0_37_237
*1006 FILLER_0_37_249
*1007 FILLER_0_37_261
*1008 FILLER_0_37_27
*1009 FILLER_0_37_273
*1010 FILLER_0_37_279
*1011 FILLER_0_37_281
*1012 FILLER_0_37_293
*1013 FILLER_0_37_3
*1014 FILLER_0_37_305
*1015 FILLER_0_37_317
*1016 FILLER_0_37_329
*1017 FILLER_0_37_39
*1018 FILLER_0_37_51
*1019 FILLER_0_37_55
*1020 FILLER_0_37_57
*1021 FILLER_0_37_69
*1022 FILLER_0_37_81
*1023 FILLER_0_37_93
*1024 FILLER_0_38_10
*1025 FILLER_0_38_102
*1026 FILLER_0_38_106
*1027 FILLER_0_38_110
*1028 FILLER_0_38_113
*1029 FILLER_0_38_138
*1030 FILLER_0_38_14
*1031 FILLER_0_38_141
*1032 FILLER_0_38_166
*1033 FILLER_0_38_169
*1034 FILLER_0_38_18
*1035 FILLER_0_38_181
*1036 FILLER_0_38_193
*1037 FILLER_0_38_197
*1038 FILLER_0_38_209
*1039 FILLER_0_38_22
*1040 FILLER_0_38_221
*1041 FILLER_0_38_225
*1042 FILLER_0_38_237
*1043 FILLER_0_38_249
*1044 FILLER_0_38_259
*1045 FILLER_0_38_271
*1046 FILLER_0_38_279
*1047 FILLER_0_38_281
*1048 FILLER_0_38_293
*1049 FILLER_0_38_305
*1050 FILLER_0_38_309
*1051 FILLER_0_38_32
*1052 FILLER_0_38_321
*1053 FILLER_0_38_327
*1054 FILLER_0_38_38
*1055 FILLER_0_38_42
*1056 FILLER_0_38_46
*1057 FILLER_0_38_50
*1058 FILLER_0_38_54
*1059 FILLER_0_38_57
*1060 FILLER_0_38_6
*1061 FILLER_0_38_62
*1062 FILLER_0_38_66
*1063 FILLER_0_38_70
*1064 FILLER_0_38_74
*1065 FILLER_0_38_78
*1066 FILLER_0_38_88
*1067 FILLER_0_38_94
*1068 FILLER_0_38_98
*1069 FILLER_0_3_105
*1070 FILLER_0_3_111
*1071 FILLER_0_3_15
*1072 FILLER_0_3_182
*1073 FILLER_0_3_194
*1074 FILLER_0_3_206
*1075 FILLER_0_3_218
*1076 FILLER_0_3_230
*1077 FILLER_0_3_234
*1078 FILLER_0_3_236
*1079 FILLER_0_3_248
*1080 FILLER_0_3_260
*1081 FILLER_0_3_27
*1082 FILLER_0_3_272
*1083 FILLER_0_3_284
*1084 FILLER_0_3_290
*1085 FILLER_0_3_292
*1086 FILLER_0_3_3
*1087 FILLER_0_3_304
*1088 FILLER_0_3_316
*1089 FILLER_0_3_328
*1090 FILLER_0_3_334
*1091 FILLER_0_3_39
*1092 FILLER_0_3_51
*1093 FILLER_0_3_55
*1094 FILLER_0_3_57
*1095 FILLER_0_3_69
*1096 FILLER_0_3_81
*1097 FILLER_0_3_93
*1098 FILLER_0_4_109
*1099 FILLER_0_4_15
*1100 FILLER_0_4_182
*1101 FILLER_0_4_194
*1102 FILLER_0_4_206
*1103 FILLER_0_4_208
*1104 FILLER_0_4_220
*1105 FILLER_0_4_232
*1106 FILLER_0_4_244
*1107 FILLER_0_4_256
*1108 FILLER_0_4_262
*1109 FILLER_0_4_264
*1110 FILLER_0_4_27
*1111 FILLER_0_4_276
*1112 FILLER_0_4_288
*1113 FILLER_0_4_29
*1114 FILLER_0_4_3
*1115 FILLER_0_4_300
*1116 FILLER_0_4_312
*1117 FILLER_0_4_318
*1118 FILLER_0_4_320
*1119 FILLER_0_4_332
*1120 FILLER_0_4_41
*1121 FILLER_0_4_53
*1122 FILLER_0_4_65
*1123 FILLER_0_4_77
*1124 FILLER_0_4_83
*1125 FILLER_0_4_85
*1126 FILLER_0_4_97
*1127 FILLER_0_5_105
*1128 FILLER_0_5_111
*1129 FILLER_0_5_15
*1130 FILLER_0_5_182
*1131 FILLER_0_5_194
*1132 FILLER_0_5_206
*1133 FILLER_0_5_218
*1134 FILLER_0_5_230
*1135 FILLER_0_5_234
*1136 FILLER_0_5_236
*1137 FILLER_0_5_248
*1138 FILLER_0_5_260
*1139 FILLER_0_5_27
*1140 FILLER_0_5_272
*1141 FILLER_0_5_284
*1142 FILLER_0_5_290
*1143 FILLER_0_5_292
*1144 FILLER_0_5_3
*1145 FILLER_0_5_304
*1146 FILLER_0_5_316
*1147 FILLER_0_5_328
*1148 FILLER_0_5_334
*1149 FILLER_0_5_39
*1150 FILLER_0_5_51
*1151 FILLER_0_5_55
*1152 FILLER_0_5_57
*1153 FILLER_0_5_69
*1154 FILLER_0_5_81
*1155 FILLER_0_5_93
*1156 FILLER_0_6_109
*1157 FILLER_0_6_15
*1158 FILLER_0_6_182
*1159 FILLER_0_6_194
*1160 FILLER_0_6_206
*1161 FILLER_0_6_208
*1162 FILLER_0_6_220
*1163 FILLER_0_6_232
*1164 FILLER_0_6_244
*1165 FILLER_0_6_256
*1166 FILLER_0_6_262
*1167 FILLER_0_6_264
*1168 FILLER_0_6_27
*1169 FILLER_0_6_276
*1170 FILLER_0_6_288
*1171 FILLER_0_6_29
*1172 FILLER_0_6_3
*1173 FILLER_0_6_300
*1174 FILLER_0_6_312
*1175 FILLER_0_6_318
*1176 FILLER_0_6_320
*1177 FILLER_0_6_332
*1178 FILLER_0_6_41
*1179 FILLER_0_6_53
*1180 FILLER_0_6_65
*1181 FILLER_0_6_77
*1182 FILLER_0_6_83
*1183 FILLER_0_6_85
*1184 FILLER_0_6_97
*1185 FILLER_0_7_105
*1186 FILLER_0_7_111
*1187 FILLER_0_7_15
*1188 FILLER_0_7_182
*1189 FILLER_0_7_194
*1190 FILLER_0_7_206
*1191 FILLER_0_7_218
*1192 FILLER_0_7_230
*1193 FILLER_0_7_234
*1194 FILLER_0_7_236
*1195 FILLER_0_7_248
*1196 FILLER_0_7_260
*1197 FILLER_0_7_27
*1198 FILLER_0_7_272
*1199 FILLER_0_7_284
*1200 FILLER_0_7_290
*1201 FILLER_0_7_292
*1202 FILLER_0_7_3
*1203 FILLER_0_7_304
*1204 FILLER_0_7_316
*1205 FILLER_0_7_328
*1206 FILLER_0_7_334
*1207 FILLER_0_7_39
*1208 FILLER_0_7_51
*1209 FILLER_0_7_55
*1210 FILLER_0_7_57
*1211 FILLER_0_7_69
*1212 FILLER_0_7_81
*1213 FILLER_0_7_93
*1214 FILLER_0_8_109
*1215 FILLER_0_8_15
*1216 FILLER_0_8_182
*1217 FILLER_0_8_194
*1218 FILLER_0_8_206
*1219 FILLER_0_8_208
*1220 FILLER_0_8_220
*1221 FILLER_0_8_232
*1222 FILLER_0_8_244
*1223 FILLER_0_8_256
*1224 FILLER_0_8_262
*1225 FILLER_0_8_264
*1226 FILLER_0_8_27
*1227 FILLER_0_8_276
*1228 FILLER_0_8_288
*1229 FILLER_0_8_29
*1230 FILLER_0_8_3
*1231 FILLER_0_8_300
*1232 FILLER_0_8_312
*1233 FILLER_0_8_318
*1234 FILLER_0_8_320
*1235 FILLER_0_8_332
*1236 FILLER_0_8_41
*1237 FILLER_0_8_53
*1238 FILLER_0_8_65
*1239 FILLER_0_8_77
*1240 FILLER_0_8_83
*1241 FILLER_0_8_85
*1242 FILLER_0_8_97
*1243 FILLER_0_9_105
*1244 FILLER_0_9_111
*1245 FILLER_0_9_15
*1246 FILLER_0_9_182
*1247 FILLER_0_9_194
*1248 FILLER_0_9_206
*1249 FILLER_0_9_218
*1250 FILLER_0_9_230
*1251 FILLER_0_9_234
*1252 FILLER_0_9_236
*1253 FILLER_0_9_248
*1254 FILLER_0_9_260
*1255 FILLER_0_9_27
*1256 FILLER_0_9_272
*1257 FILLER_0_9_284
*1258 FILLER_0_9_290
*1259 FILLER_0_9_292
*1260 FILLER_0_9_3
*1261 FILLER_0_9_304
*1262 FILLER_0_9_316
*1263 FILLER_0_9_328
*1264 FILLER_0_9_334
*1265 FILLER_0_9_39
*1266 FILLER_0_9_51
*1267 FILLER_0_9_55
*1268 FILLER_0_9_57
*1269 FILLER_0_9_69
*1270 FILLER_0_9_81
*1271 FILLER_0_9_93
*1272 PHY_EDGE_ROW_0_Left_39
*1273 PHY_EDGE_ROW_0_Right_0
*1274 PHY_EDGE_ROW_10_1_Left_48
*1275 PHY_EDGE_ROW_10_1_Right_116
*1276 PHY_EDGE_ROW_10_2_Left_87
*1277 PHY_EDGE_ROW_10_2_Right_18
*1278 PHY_EDGE_ROW_11_1_Left_49
*1279 PHY_EDGE_ROW_11_1_Right_117
*1280 PHY_EDGE_ROW_11_2_Left_88
*1281 PHY_EDGE_ROW_11_2_Right_19
*1282 PHY_EDGE_ROW_12_1_Left_50
*1283 PHY_EDGE_ROW_12_1_Right_118
*1284 PHY_EDGE_ROW_12_2_Left_89
*1285 PHY_EDGE_ROW_12_2_Right_20
*1286 PHY_EDGE_ROW_13_1_Left_51
*1287 PHY_EDGE_ROW_13_1_Right_119
*1288 PHY_EDGE_ROW_13_2_Left_90
*1289 PHY_EDGE_ROW_13_2_Right_21
*1290 PHY_EDGE_ROW_14_1_Left_52
*1291 PHY_EDGE_ROW_14_1_Right_120
*1292 PHY_EDGE_ROW_14_2_Left_91
*1293 PHY_EDGE_ROW_14_2_Right_22
*1294 PHY_EDGE_ROW_15_1_Left_53
*1295 PHY_EDGE_ROW_15_1_Right_121
*1296 PHY_EDGE_ROW_15_2_Left_92
*1297 PHY_EDGE_ROW_15_2_Right_23
*1298 PHY_EDGE_ROW_16_1_Left_54
*1299 PHY_EDGE_ROW_16_1_Right_122
*1300 PHY_EDGE_ROW_16_3_Left_93
*1301 PHY_EDGE_ROW_16_3_Right_24
*1302 PHY_EDGE_ROW_17_1_Left_55
*1303 PHY_EDGE_ROW_17_1_Right_123
*1304 PHY_EDGE_ROW_17_2_Left_94
*1305 PHY_EDGE_ROW_17_2_Right_25
*1306 PHY_EDGE_ROW_18_1_Left_56
*1307 PHY_EDGE_ROW_18_1_Right_124
*1308 PHY_EDGE_ROW_18_2_Left_95
*1309 PHY_EDGE_ROW_18_2_Right_26
*1310 PHY_EDGE_ROW_19_1_Left_57
*1311 PHY_EDGE_ROW_19_1_Right_125
*1312 PHY_EDGE_ROW_19_2_Left_96
*1313 PHY_EDGE_ROW_19_2_Right_27
*1314 PHY_EDGE_ROW_1_1_Left_77
*1315 PHY_EDGE_ROW_1_1_Right_137
*1316 PHY_EDGE_ROW_1_2_Left_78
*1317 PHY_EDGE_ROW_1_2_Right_9
*1318 PHY_EDGE_ROW_20_1_Left_58
*1319 PHY_EDGE_ROW_20_1_Right_126
*1320 PHY_EDGE_ROW_20_2_Left_97
*1321 PHY_EDGE_ROW_20_2_Right_28
*1322 PHY_EDGE_ROW_21_1_Left_59
*1323 PHY_EDGE_ROW_21_1_Right_127
*1324 PHY_EDGE_ROW_21_2_Left_98
*1325 PHY_EDGE_ROW_21_2_Right_29
*1326 PHY_EDGE_ROW_22_1_Left_60
*1327 PHY_EDGE_ROW_22_1_Right_128
*1328 PHY_EDGE_ROW_22_2_Left_99
*1329 PHY_EDGE_ROW_22_2_Right_30
*1330 PHY_EDGE_ROW_23_1_Left_61
*1331 PHY_EDGE_ROW_23_1_Right_129
*1332 PHY_EDGE_ROW_23_2_Left_100
*1333 PHY_EDGE_ROW_23_2_Right_31
*1334 PHY_EDGE_ROW_24_1_Left_62
*1335 PHY_EDGE_ROW_24_1_Right_130
*1336 PHY_EDGE_ROW_24_2_Left_101
*1337 PHY_EDGE_ROW_24_2_Right_32
*1338 PHY_EDGE_ROW_25_1_Left_63
*1339 PHY_EDGE_ROW_25_1_Right_131
*1340 PHY_EDGE_ROW_25_2_Left_102
*1341 PHY_EDGE_ROW_25_2_Right_33
*1342 PHY_EDGE_ROW_26_1_Left_64
*1343 PHY_EDGE_ROW_26_1_Right_132
*1344 PHY_EDGE_ROW_26_2_Left_103
*1345 PHY_EDGE_ROW_26_2_Right_34
*1346 PHY_EDGE_ROW_27_1_Left_65
*1347 PHY_EDGE_ROW_27_1_Right_133
*1348 PHY_EDGE_ROW_27_2_Left_104
*1349 PHY_EDGE_ROW_27_2_Right_35
*1350 PHY_EDGE_ROW_28_1_Left_66
*1351 PHY_EDGE_ROW_28_1_Right_134
*1352 PHY_EDGE_ROW_28_2_Left_105
*1353 PHY_EDGE_ROW_28_2_Right_36
*1354 PHY_EDGE_ROW_29_1_Left_67
*1355 PHY_EDGE_ROW_29_1_Right_135
*1356 PHY_EDGE_ROW_29_2_Left_106
*1357 PHY_EDGE_ROW_29_2_Right_37
*1358 PHY_EDGE_ROW_2_1_Left_40
*1359 PHY_EDGE_ROW_2_1_Right_108
*1360 PHY_EDGE_ROW_2_2_Left_79
*1361 PHY_EDGE_ROW_2_2_Right_10
*1362 PHY_EDGE_ROW_30_1_Left_68
*1363 PHY_EDGE_ROW_30_1_Right_136
*1364 PHY_EDGE_ROW_30_2_Left_107
*1365 PHY_EDGE_ROW_30_2_Right_38
*1366 PHY_EDGE_ROW_31_Left_69
*1367 PHY_EDGE_ROW_31_Right_1
*1368 PHY_EDGE_ROW_32_Left_70
*1369 PHY_EDGE_ROW_32_Right_2
*1370 PHY_EDGE_ROW_33_Left_71
*1371 PHY_EDGE_ROW_33_Right_3
*1372 PHY_EDGE_ROW_34_Left_72
*1373 PHY_EDGE_ROW_34_Right_4
*1374 PHY_EDGE_ROW_35_Left_73
*1375 PHY_EDGE_ROW_35_Right_5
*1376 PHY_EDGE_ROW_36_Left_74
*1377 PHY_EDGE_ROW_36_Right_6
*1378 PHY_EDGE_ROW_37_Left_75
*1379 PHY_EDGE_ROW_37_Right_7
*1380 PHY_EDGE_ROW_38_Left_76
*1381 PHY_EDGE_ROW_38_Right_8
*1382 PHY_EDGE_ROW_3_1_Left_41
*1383 PHY_EDGE_ROW_3_1_Right_109
*1384 PHY_EDGE_ROW_3_2_Left_80
*1385 PHY_EDGE_ROW_3_2_Right_11
*1386 PHY_EDGE_ROW_4_1_Left_42
*1387 PHY_EDGE_ROW_4_1_Right_110
*1388 PHY_EDGE_ROW_4_2_Left_81
*1389 PHY_EDGE_ROW_4_2_Right_12
*1390 PHY_EDGE_ROW_5_1_Left_43
*1391 PHY_EDGE_ROW_5_1_Right_111
*1392 PHY_EDGE_ROW_5_2_Left_82
*1393 PHY_EDGE_ROW_5_2_Right_13
*1394 PHY_EDGE_ROW_6_1_Left_44
*1395 PHY_EDGE_ROW_6_1_Right_112
*1396 PHY_EDGE_ROW_6_2_Left_83
*1397 PHY_EDGE_ROW_6_2_Right_14
*1398 PHY_EDGE_ROW_7_1_Left_45
*1399 PHY_EDGE_ROW_7_1_Right_113
*1400 PHY_EDGE_ROW_7_2_Left_84
*1401 PHY_EDGE_ROW_7_2_Right_15
*1402 PHY_EDGE_ROW_8_1_Left_46