*SPEF "ieee 1481-1999"
*DESIGN "tt_um_ender_clock"
*DATE "10:32:51 Monday May 06, 2024"
*VENDOR "The OpenROAD Project"
*PROGRAM "OpenROAD"
*VERSION "da0053d7b0014ab9c87ea148875ff6c2a0f9b658"
*DESIGN_FLOW "NAME_SCOPE LOCAL" "PIN_CAP NONE"
*DIVIDER /
*DELIMITER :
*BUS_DELIMITER []
*T_UNIT 1 NS
*C_UNIT 1 PF
*R_UNIT 1 OHM
*L_UNIT 1 HENRY

*NAME_MAP
*3 clk
*4 ena
*5 rst_n
*6 ui_in[0]
*7 ui_in[1]
*8 ui_in[2]
*9 ui_in[3]
*10 ui_in[4]
*11 ui_in[5]
*12 ui_in[6]
*13 ui_in[7]
*14 uio_in[0]
*15 uio_in[1]
*16 uio_in[2]
*17 uio_in[3]
*18 uio_in[4]
*19 uio_in[5]
*20 uio_in[6]
*21 uio_in[7]
*22 net14
*23 net15
*24 net16
*25 net17
*26 net18
*27 net19
*28 net20
*29 net21
*30 uio_out[0]
*31 uio_out[1]
*32 uio_out[2]
*33 uio_out[3]
*34 uio_out[4]
*35 uio_out[5]
*36 uio_out[6]
*37 uio_out[7]
*38 uo_out[0]
*39 uo_out[1]
*40 uo_out[2]
*41 uo_out[3]
*42 uo_out[4]
*43 uo_out[5]
*44 uo_out[6]
*45 uo_out[7]
*46 _000_
*47 _001_
*48 _002_
*49 _003_
*50 _004_
*51 _005_
*52 _006_
*53 _007_
*54 _008_
*55 _009_
*56 _010_
*57 _011_
*58 _012_
*59 _013_
*60 _014_
*61 _015_
*62 _016_
*63 _017_
*64 _018_
*65 _019_
*66 _020_
*67 _021_
*68 _022_
*69 _023_
*70 _024_
*71 _025_
*72 _026_
*73 _027_
*74 _028_
*75 _029_
*76 _030_
*77 _031_
*78 _032_
*79 _033_
*80 _034_
*81 _035_
*82 _036_
*83 _037_
*84 _038_
*85 _039_
*86 _040_
*87 _041_
*88 _042_
*89 _043_
*90 _044_
*91 _045_
*92 _046_
*93 _047_
*94 _048_
*95 _049_
*96 _050_
*97 _051_
*98 _052_
*99 _053_
*100 _054_
*101 _055_
*102 _056_
*103 _057_
*104 _058_
*105 _059_
*106 _060_
*107 _061_
*108 _062_
*109 _063_
*110 _064_
*111 _065_
*112 _066_
*113 _067_
*114 _068_
*115 _069_
*116 _070_
*117 _071_
*118 _072_
*119 _073_
*120 _074_
*121 _075_
*122 _076_
*123 _077_
*124 _078_
*125 _079_
*126 _080_
*127 _081_
*128 _082_
*129 _083_
*130 _084_
*131 _085_
*132 _086_
*133 _087_
*134 _088_
*135 _089_
*136 _090_
*137 _091_
*138 _092_
*139 _093_
*140 _094_
*141 _095_
*142 _096_
*143 _097_
*144 _098_
*145 _099_
*146 _100_
*147 _101_
*148 _102_
*149 _103_
*150 _104_
*151 _105_
*152 _106_
*153 _107_
*154 _108_
*155 _109_
*156 _110_
*157 _111_
*158 _112_
*159 _113_
*160 _114_
*161 _115_
*162 _116_
*163 _117_
*164 _118_
*165 _119_
*166 _120_
*167 _121_
*168 _122_
*169 _123_
*170 _124_
*171 _125_
*172 _126_
*173 _127_
*174 _128_
*175 _129_
*176 _130_
*177 _131_
*178 _132_
*179 _133_
*180 _134_
*181 _135_
*182 _136_
*183 _137_
*184 _138_
*185 _139_
*186 _140_
*187 _141_
*188 _142_
*189 _143_
*190 _144_
*191 _145_
*192 _146_
*193 _147_
*194 _148_
*195 _149_
*196 _150_
*197 _151_
*198 _152_
*199 _153_
*200 _154_
*201 _155_
*202 _156_
*203 _157_
*204 _158_
*205 _159_
*206 _160_
*207 _161_
*208 _162_
*209 _163_
*210 _164_
*211 _165_
*212 _166_
*213 _167_
*214 _168_
*215 _169_
*216 _170_
*217 _171_
*218 _172_
*219 _173_
*220 _174_
*221 _175_
*222 _176_
*223 _177_
*224 _178_
*225 _179_
*226 _180_
*227 _181_
*228 _182_
*229 _183_
*230 _184_
*231 _185_
*232 _186_
*233 _187_
*234 _188_
*235 _189_
*236 _190_
*237 _191_
*238 _192_
*239 _193_
*240 _194_
*241 _195_
*242 _196_
*243 _197_
*244 _198_
*245 _199_
*246 _200_
*247 _201_
*248 _202_
*249 _203_
*250 _204_
*251 _205_
*252 _206_
*253 _207_
*254 _208_
*255 _209_
*256 _210_
*257 _211_
*258 _212_
*259 _213_
*260 _214_
*261 _215_
*262 _216_
*263 _217_
*264 _218_
*265 _219_
*266 _220_
*267 _221_
*268 _222_
*269 _223_
*270 _224_
*271 _225_
*272 _226_
*273 _227_
*274 _228_
*275 _229_
*276 _230_
*277 _231_
*278 _232_
*279 _233_
*280 _234_
*281 _235_
*282 _236_
*283 _237_
*284 _238_
*285 _239_
*286 _240_
*287 _241_
*288 _242_
*289 _243_
*290 _244_
*291 _245_
*292 _246_
*293 _247_
*294 _248_
*295 _249_
*296 _250_
*297 _251_
*298 _252_
*299 _253_
*300 _254_
*301 _255_
*302 _256_
*303 clknet_0_clk
*304 clknet_3_0_0_clk
*305 clknet_3_1_0_clk
*306 clknet_3_2_0_clk
*307 clknet_3_3_0_clk
*308 clknet_3_4_0_clk
*309 clknet_3_5_0_clk
*310 clknet_3_6_0_clk
*311 clknet_3_7_0_clk
*312 clock_counter\[0\]
*313 clock_counter\[10\]
*314 clock_counter\[11\]
*315 clock_counter\[12\]
*316 clock_counter\[1\]
*317 clock_counter\[2\]
*318 clock_counter\[3\]
*319 clock_counter\[4\]
*320 clock_counter\[5\]
*321 clock_counter\[6\]
*322 clock_counter\[7\]
*323 clock_counter\[8\]
*324 clock_counter\[9\]
*325 clock_run_flag
*326 day\[0\]
*327 day\[1\]
*328 day\[2\]
*329 day\[3\]
*330 day\[4\]
*331 day_this_month\[0\]
*332 day_this_month\[1\]
*333 hour\[0\]
*334 hour\[1\]
*335 hour\[2\]
*336 hour\[3\]
*337 hour\[4\]
*338 key_add_filter\[0\]
*339 key_add_filter\[1\]
*340 key_add_filter\[2\]
*341 key_add_filter\[3\]
*342 key_mode_filter\[0\]
*343 key_mode_filter\[1\]
*344 key_mode_filter\[2\]
*345 key_mode_filter\[3\]
*346 minute\[0\]
*347 minute\[1\]
*348 minute\[2\]
*349 minute\[3\]
*350 minute\[4\]
*351 minute\[5\]
*352 month\[0\]
*353 month\[1\]
*354 month\[2\]
*355 month\[3\]
*356 net1
*357 net10
*358 net11
*359 net12
*360 net13
*361 net2
*362 net22
*363 net23
*364 net24
*365 net25
*366 net26
*367 net27
*368 net28
*369 net29
*370 net3
*371 net30
*372 net31
*373 net32
*374 net33
*375 net34
*376 net35
*377 net36
*378 net37
*379 net38
*380 net39
*381 net4
*382 net40
*383 net41
*384 net42
*385 net43
*386 net44
*387 net45
*388 net46
*389 net47
*390 net48
*391 net49
*392 net5
*393 net50
*394 net51
*395 net52
*396 net53
*397 net54
*398 net55
*399 net56
*400 net57
*401 net58
*402 net6
*403 net7
*404 net8
*405 net9
*406 second\[0\]
*407 second\[1\]
*408 second\[2\]
*409 second\[3\]
*410 second\[4\]
*411 second\[5\]
*412 segment_clock_bit
*413 segment_show1\.byte_status\[0\]
*414 segment_show1\.byte_status\[1\]
*415 segment_show1\.byte_status\[2\]
*416 status\[0\]
*417 status\[1\]
*418 status\[2\]
*419 FILLER_0_0_109
*420 FILLER_0_0_113
*421 FILLER_0_0_125
*422 FILLER_0_0_137
*423 FILLER_0_0_141
*424 FILLER_0_0_15
*425 FILLER_0_0_153
*426 FILLER_0_0_165
*427 FILLER_0_0_169
*428 FILLER_0_0_181
*429 FILLER_0_0_193
*430 FILLER_0_0_197
*431 FILLER_0_0_209
*432 FILLER_0_0_221
*433 FILLER_0_0_225
*434 FILLER_0_0_237
*435 FILLER_0_0_249
*436 FILLER_0_0_253
*437 FILLER_0_0_265
*438 FILLER_0_0_27
*439 FILLER_0_0_277
*440 FILLER_0_0_281
*441 FILLER_0_0_29
*442 FILLER_0_0_293
*443 FILLER_0_0_3
*444 FILLER_0_0_305
*445 FILLER_0_0_309
*446 FILLER_0_0_321
*447 FILLER_0_0_333
*448 FILLER_0_0_41
*449 FILLER_0_0_53
*450 FILLER_0_0_57
*451 FILLER_0_0_69
*452 FILLER_0_0_81
*453 FILLER_0_0_85
*454 FILLER_0_0_97
*455 FILLER_0_10_109
*456 FILLER_0_10_121
*457 FILLER_0_10_133
*458 FILLER_0_10_139
*459 FILLER_0_10_141
*460 FILLER_0_10_15
*461 FILLER_0_10_153
*462 FILLER_0_10_165
*463 FILLER_0_10_177
*464 FILLER_0_10_189
*465 FILLER_0_10_195
*466 FILLER_0_10_197
*467 FILLER_0_10_209
*468 FILLER_0_10_221
*469 FILLER_0_10_233
*470 FILLER_0_10_245
*471 FILLER_0_10_251
*472 FILLER_0_10_253
*473 FILLER_0_10_265
*474 FILLER_0_10_27
*475 FILLER_0_10_277
*476 FILLER_0_10_289
*477 FILLER_0_10_29
*478 FILLER_0_10_3
*479 FILLER_0_10_301
*480 FILLER_0_10_307
*481 FILLER_0_10_309
*482 FILLER_0_10_321
*483 FILLER_0_10_333
*484 FILLER_0_10_41
*485 FILLER_0_10_53
*486 FILLER_0_10_65
*487 FILLER_0_10_77
*488 FILLER_0_10_83
*489 FILLER_0_10_85
*490 FILLER_0_10_97
*491 FILLER_0_11_105
*492 FILLER_0_11_111
*493 FILLER_0_11_113
*494 FILLER_0_11_125
*495 FILLER_0_11_137
*496 FILLER_0_11_149
*497 FILLER_0_11_15
*498 FILLER_0_11_161
*499 FILLER_0_11_167
*500 FILLER_0_11_169
*501 FILLER_0_11_181
*502 FILLER_0_11_193
*503 FILLER_0_11_205
*504 FILLER_0_11_217
*505 FILLER_0_11_223
*506 FILLER_0_11_225
*507 FILLER_0_11_237
*508 FILLER_0_11_249
*509 FILLER_0_11_261
*510 FILLER_0_11_27
*511 FILLER_0_11_273
*512 FILLER_0_11_279
*513 FILLER_0_11_281
*514 FILLER_0_11_293
*515 FILLER_0_11_3
*516 FILLER_0_11_305
*517 FILLER_0_11_317
*518 FILLER_0_11_329
*519 FILLER_0_11_39
*520 FILLER_0_11_51
*521 FILLER_0_11_55
*522 FILLER_0_11_57
*523 FILLER_0_11_69
*524 FILLER_0_11_81
*525 FILLER_0_11_93
*526 FILLER_0_12_109
*527 FILLER_0_12_121
*528 FILLER_0_12_133
*529 FILLER_0_12_139
*530 FILLER_0_12_141
*531 FILLER_0_12_15
*532 FILLER_0_12_153
*533 FILLER_0_12_165
*534 FILLER_0_12_177
*535 FILLER_0_12_189
*536 FILLER_0_12_195
*537 FILLER_0_12_197
*538 FILLER_0_12_209
*539 FILLER_0_12_221
*540 FILLER_0_12_233
*541 FILLER_0_12_245
*542 FILLER_0_12_251
*543 FILLER_0_12_253
*544 FILLER_0_12_265
*545 FILLER_0_12_27
*546 FILLER_0_12_277
*547 FILLER_0_12_289
*548 FILLER_0_12_29
*549 FILLER_0_12_3
*550 FILLER_0_12_301
*551 FILLER_0_12_307
*552 FILLER_0_12_309
*553 FILLER_0_12_321
*554 FILLER_0_12_333
*555 FILLER_0_12_41
*556 FILLER_0_12_53
*557 FILLER_0_12_65
*558 FILLER_0_12_77
*559 FILLER_0_12_83
*560 FILLER_0_12_85
*561 FILLER_0_12_97
*562 FILLER_0_13_105
*563 FILLER_0_13_111
*564 FILLER_0_13_113
*565 FILLER_0_13_125
*566 FILLER_0_13_137
*567 FILLER_0_13_149
*568 FILLER_0_13_15
*569 FILLER_0_13_161
*570 FILLER_0_13_167
*571 FILLER_0_13_169
*572 FILLER_0_13_181
*573 FILLER_0_13_193
*574 FILLER_0_13_205
*575 FILLER_0_13_217
*576 FILLER_0_13_223
*577 FILLER_0_13_225
*578 FILLER_0_13_237
*579 FILLER_0_13_249
*580 FILLER_0_13_261
*581 FILLER_0_13_27
*582 FILLER_0_13_273
*583 FILLER_0_13_279
*584 FILLER_0_13_281
*585 FILLER_0_13_293
*586 FILLER_0_13_3
*587 FILLER_0_13_305
*588 FILLER_0_13_317
*589 FILLER_0_13_329
*590 FILLER_0_13_39
*591 FILLER_0_13_51
*592 FILLER_0_13_55
*593 FILLER_0_13_57
*594 FILLER_0_13_69
*595 FILLER_0_13_81
*596 FILLER_0_13_93
*597 FILLER_0_14_109
*598 FILLER_0_14_121
*599 FILLER_0_14_133
*600 FILLER_0_14_139
*601 FILLER_0_14_141
*602 FILLER_0_14_15
*603 FILLER_0_14_153
*604 FILLER_0_14_165
*605 FILLER_0_14_177
*606 FILLER_0_14_189
*607 FILLER_0_14_195
*608 FILLER_0_14_197
*609 FILLER_0_14_209
*610 FILLER_0_14_221
*611 FILLER_0_14_233
*612 FILLER_0_14_245
*613 FILLER_0_14_251
*614 FILLER_0_14_253
*615 FILLER_0_14_265
*616 FILLER_0_14_27
*617 FILLER_0_14_277
*618 FILLER_0_14_289
*619 FILLER_0_14_29
*620 FILLER_0_14_3
*621 FILLER_0_14_301
*622 FILLER_0_14_307
*623 FILLER_0_14_309
*624 FILLER_0_14_321
*625 FILLER_0_14_333
*626 FILLER_0_14_41
*627 FILLER_0_14_53
*628 FILLER_0_14_65
*629 FILLER_0_14_77
*630 FILLER_0_14_83
*631 FILLER_0_14_85
*632 FILLER_0_14_97
*633 FILLER_0_15_105
*634 FILLER_0_15_111
*635 FILLER_0_15_113
*636 FILLER_0_15_125
*637 FILLER_0_15_137
*638 FILLER_0_15_149
*639 FILLER_0_15_15
*640 FILLER_0_15_161
*641 FILLER_0_15_167
*642 FILLER_0_15_169
*643 FILLER_0_15_181
*644 FILLER_0_15_193
*645 FILLER_0_15_205
*646 FILLER_0_15_217
*647 FILLER_0_15_223
*648 FILLER_0_15_225
*649 FILLER_0_15_237
*650 FILLER_0_15_249
*651 FILLER_0_15_261
*652 FILLER_0_15_27
*653 FILLER_0_15_273
*654 FILLER_0_15_279
*655 FILLER_0_15_281
*656 FILLER_0_15_293
*657 FILLER_0_15_3
*658 FILLER_0_15_305
*659 FILLER_0_15_317
*660 FILLER_0_15_329
*661 FILLER_0_15_39
*662 FILLER_0_15_51
*663 FILLER_0_15_55
*664 FILLER_0_15_57
*665 FILLER_0_15_69
*666 FILLER_0_15_81
*667 FILLER_0_15_93
*668 FILLER_0_16_109
*669 FILLER_0_16_121
*670 FILLER_0_16_133
*671 FILLER_0_16_139
*672 FILLER_0_16_141
*673 FILLER_0_16_15
*674 FILLER_0_16_153
*675 FILLER_0_16_165
*676 FILLER_0_16_177
*677 FILLER_0_16_189
*678 FILLER_0_16_195
*679 FILLER_0_16_197
*680 FILLER_0_16_209
*681 FILLER_0_16_221
*682 FILLER_0_16_233
*683 FILLER_0_16_245
*684 FILLER_0_16_251
*685 FILLER_0_16_253
*686 FILLER_0_16_265
*687 FILLER_0_16_27
*688 FILLER_0_16_277
*689 FILLER_0_16_289
*690 FILLER_0_16_29
*691 FILLER_0_16_3
*692 FILLER_0_16_301
*693 FILLER_0_16_307
*694 FILLER_0_16_309
*695 FILLER_0_16_321
*696 FILLER_0_16_333
*697 FILLER_0_16_41
*698 FILLER_0_16_53
*699 FILLER_0_16_65
*700 FILLER_0_16_77
*701 FILLER_0_16_83
*702 FILLER_0_16_85
*703 FILLER_0_16_97
*704 FILLER_0_17_105
*705 FILLER_0_17_111
*706 FILLER_0_17_113
*707 FILLER_0_17_125
*708 FILLER_0_17_137
*709 FILLER_0_17_149
*710 FILLER_0_17_15
*711 FILLER_0_17_161
*712 FILLER_0_17_167
*713 FILLER_0_17_169
*714 FILLER_0_17_181
*715 FILLER_0_17_193
*716 FILLER_0_17_205
*717 FILLER_0_17_217
*718 FILLER_0_17_223
*719 FILLER_0_17_225
*720 FILLER_0_17_237
*721 FILLER_0_17_249
*722 FILLER_0_17_261
*723 FILLER_0_17_27
*724 FILLER_0_17_273
*725 FILLER_0_17_279
*726 FILLER_0_17_281
*727 FILLER_0_17_293
*728 FILLER_0_17_3
*729 FILLER_0_17_305
*730 FILLER_0_17_317
*731 FILLER_0_17_329
*732 FILLER_0_17_39
*733 FILLER_0_17_51
*734 FILLER_0_17_55
*735 FILLER_0_17_57
*736 FILLER_0_17_69
*737 FILLER_0_17_81
*738 FILLER_0_17_93
*739 FILLER_0_18_109
*740 FILLER_0_18_121
*741 FILLER_0_18_133
*742 FILLER_0_18_139
*743 FILLER_0_18_141
*744 FILLER_0_18_15
*745 FILLER_0_18_153
*746 FILLER_0_18_165
*747 FILLER_0_18_177
*748 FILLER_0_18_189
*749 FILLER_0_18_195
*750 FILLER_0_18_197
*751 FILLER_0_18_209
*752 FILLER_0_18_221
*753 FILLER_0_18_233
*754 FILLER_0_18_245
*755 FILLER_0_18_251
*756 FILLER_0_18_253
*757 FILLER_0_18_265
*758 FILLER_0_18_27
*759 FILLER_0_18_277
*760 FILLER_0_18_289
*761 FILLER_0_18_29
*762 FILLER_0_18_3
*763 FILLER_0_18_301
*764 FILLER_0_18_307
*765 FILLER_0_18_309
*766 FILLER_0_18_321
*767 FILLER_0_18_333
*768 FILLER_0_18_41
*769 FILLER_0_18_53
*770 FILLER_0_18_65
*771 FILLER_0_18_77
*772 FILLER_0_18_83
*773 FILLER_0_18_85
*774 FILLER_0_18_97
*775 FILLER_0_19_105
*776 FILLER_0_19_111
*777 FILLER_0_19_113
*778 FILLER_0_19_125
*779 FILLER_0_19_137
*780 FILLER_0_19_149
*781 FILLER_0_19_15
*782 FILLER_0_19_161
*783 FILLER_0_19_167
*784 FILLER_0_19_169
*785 FILLER_0_19_181
*786 FILLER_0_19_193
*787 FILLER_0_19_205
*788 FILLER_0_19_217
*789 FILLER_0_19_223
*790 FILLER_0_19_225
*791 FILLER_0_19_237
*792 FILLER_0_19_249
*793 FILLER_0_19_261
*794 FILLER_0_19_27
*795 FILLER_0_19_273
*796 FILLER_0_19_279
*797 FILLER_0_19_281
*798 FILLER_0_19_293
*799 FILLER_0_19_3
*800 FILLER_0_19_305
*801 FILLER_0_19_317
*802 FILLER_0_19_329
*803 FILLER_0_19_39
*804 FILLER_0_19_51
*805 FILLER_0_19_55
*806 FILLER_0_19_57
*807 FILLER_0_19_69
*808 FILLER_0_19_81
*809 FILLER_0_19_93
*810 FILLER_0_1_105
*811 FILLER_0_1_111
*812 FILLER_0_1_113
*813 FILLER_0_1_125
*814 FILLER_0_1_137
*815 FILLER_0_1_149
*816 FILLER_0_1_15
*817 FILLER_0_1_161
*818 FILLER_0_1_167
*819 FILLER_0_1_169
*820 FILLER_0_1_181
*821 FILLER_0_1_193
*822 FILLER_0_1_205
*823 FILLER_0_1_217
*824 FILLER_0_1_223
*825 FILLER_0_1_225
*826 FILLER_0_1_237
*827 FILLER_0_1_249
*828 FILLER_0_1_261
*829 FILLER_0_1_27
*830 FILLER_0_1_273
*831 FILLER_0_1_279
*832 FILLER_0_1_281
*833 FILLER_0_1_293
*834 FILLER_0_1_3
*835 FILLER_0_1_305
*836 FILLER_0_1_317
*837 FILLER_0_1_329
*838 FILLER_0_1_39
*839 FILLER_0_1_51
*840 FILLER_0_1_55
*841 FILLER_0_1_57
*842 FILLER_0_1_69
*843 FILLER_0_1_81
*844 FILLER_0_1_93
*845 FILLER_0_20_105
*846 FILLER_0_20_117
*847 FILLER_0_20_129
*848 FILLER_0_20_137
*849 FILLER_0_20_141
*850 FILLER_0_20_15
*851 FILLER_0_20_153
*852 FILLER_0_20_165
*853 FILLER_0_20_177
*854 FILLER_0_20_189
*855 FILLER_0_20_195
*856 FILLER_0_20_197
*857 FILLER_0_20_209
*858 FILLER_0_20_221
*859 FILLER_0_20_233
*860 FILLER_0_20_245
*861 FILLER_0_20_251
*862 FILLER_0_20_253
*863 FILLER_0_20_265
*864 FILLER_0_20_27
*865 FILLER_0_20_277
*866 FILLER_0_20_289
*867 FILLER_0_20_29
*868 FILLER_0_20_3
*869 FILLER_0_20_301
*870 FILLER_0_20_307
*871 FILLER_0_20_309
*872 FILLER_0_20_321
*873 FILLER_0_20_333
*874 FILLER_0_20_41
*875 FILLER_0_20_53
*876 FILLER_0_20_59
*877 FILLER_0_20_66
*878 FILLER_0_20_78
*879 FILLER_0_21_118
*880 FILLER_0_21_125
*881 FILLER_0_21_147
*882 FILLER_0_21_15
*883 FILLER_0_21_159
*884 FILLER_0_21_167
*885 FILLER_0_21_169
*886 FILLER_0_21_181
*887 FILLER_0_21_193
*888 FILLER_0_21_205
*889 FILLER_0_21_217
*890 FILLER_0_21_223
*891 FILLER_0_21_225
*892 FILLER_0_21_237
*893 FILLER_0_21_259
*894 FILLER_0_21_27
*895 FILLER_0_21_277
*896 FILLER_0_21_281
*897 FILLER_0_21_293
*898 FILLER_0_21_3
*899 FILLER_0_21_305
*900 FILLER_0_21_317
*901 FILLER_0_21_329
*902 FILLER_0_21_39
*903 FILLER_0_21_51
*904 FILLER_0_21_55
*905 FILLER_0_21_73
*906 FILLER_0_22_102
*907 FILLER_0_22_114
*908 FILLER_0_22_141
*909 FILLER_0_22_153
*910 FILLER_0_22_165
*911 FILLER_0_22_177
*912 FILLER_0_22_185
*913 FILLER_0_22_190
*914 FILLER_0_22_211
*915 FILLER_0_22_232
*916 FILLER_0_22_236
*917 FILLER_0_22_277
*918 FILLER_0_22_289
*919 FILLER_0_22_29
*920 FILLER_0_22_3
*921 FILLER_0_22_301
*922 FILLER_0_22_307
*923 FILLER_0_22_309
*924 FILLER_0_22_321
*925 FILLER_0_22_333
*926 FILLER_0_22_41
*927 FILLER_0_22_49
*928 FILLER_0_22_76
*929 FILLER_0_23_113
*930 FILLER_0_23_131
*931 FILLER_0_23_143
*932 FILLER_0_23_15
*933 FILLER_0_23_155
*934 FILLER_0_23_167
*935 FILLER_0_23_169
*936 FILLER_0_23_221
*937 FILLER_0_23_237
*938 FILLER_0_23_241
*939 FILLER_0_23_245
*940 FILLER_0_23_249
*941 FILLER_0_23_278
*942 FILLER_0_23_281
*943 FILLER_0_23_293
*944 FILLER_0_23_3
*945 FILLER_0_23_305
*946 FILLER_0_23_317
*947 FILLER_0_23_329
*948 FILLER_0_23_40
*949 FILLER_0_23_52
*950 FILLER_0_23_57
*951 FILLER_0_23_69
*952 FILLER_0_23_83
*953 FILLER_0_23_89
*954 FILLER_0_23_96
*955 FILLER_0_24_100
*956 FILLER_0_24_112
*957 FILLER_0_24_144
*958 FILLER_0_24_15
*959 FILLER_0_24_156
*960 FILLER_0_24_168
*961 FILLER_0_24_180
*962 FILLER_0_24_192
*963 FILLER_0_24_197
*964 FILLER_0_24_209
*965 FILLER_0_24_237
*966 FILLER_0_24_249
*967 FILLER_0_24_253
*968 FILLER_0_24_258
*969 FILLER_0_24_26
*970 FILLER_0_24_266
*971 FILLER_0_24_275
*972 FILLER_0_24_287
*973 FILLER_0_24_299
*974 FILLER_0_24_3
*975 FILLER_0_24_307
*976 FILLER_0_24_309
*977 FILLER_0_24_321
*978 FILLER_0_24_333
*979 FILLER_0_24_36
*980 FILLER_0_24_48
*981 FILLER_0_24_56
*982 FILLER_0_24_76
*983 FILLER_0_24_85
*984 FILLER_0_24_96
*985 FILLER_0_25_111
*986 FILLER_0_25_113
*987 FILLER_0_25_15
*988 FILLER_0_25_189
*989 FILLER_0_25_203
*990 FILLER_0_25_225
*991 FILLER_0_25_242
*992 FILLER_0_25_27
*993 FILLER_0_25_271
*994 FILLER_0_25_279
*995 FILLER_0_25_281
*996 FILLER_0_25_287
*997 FILLER_0_25_3
*998 FILLER_0_25_308
*999 FILLER_0_25_320
*1000 FILLER_0_25_332
*1001 FILLER_0_25_46
*1002 FILLER_0_25_55
*1003 FILLER_0_25_75
*1004 FILLER_0_25_83
*1005 FILLER_0_25_95
*1006 FILLER_0_26_111
*1007 FILLER_0_26_125
*1008 FILLER_0_26_135
*1009 FILLER_0_26_189
*1010 FILLER_0_26_195
*1011 FILLER_0_26_197
*1012 FILLER_0_26_230
*1013 FILLER_0_26_243
*1014 FILLER_0_26_296
*1015 FILLER_0_26_3
*1016 FILLER_0_26_307
*1017 FILLER_0_26_317
*1018 FILLER_0_26_329
*1019 FILLER_0_26_7
*1020 FILLER_0_26_77
*1021 FILLER_0_26_83
*1022 FILLER_0_26_85
*1023 FILLER_0_27_103
*1024 FILLER_0_27_111
*1025 FILLER_0_27_148
*1026 FILLER_0_27_15
*1027 FILLER_0_27_195
*1028 FILLER_0_27_219
*1029 FILLER_0_27_231
*1030 FILLER_0_27_243
*1031 FILLER_0_27_3
*1032 FILLER_0_27_319
*1033 FILLER_0_27_331
*1034 FILLER_0_27_36
*1035 FILLER_0_27_43
*1036 FILLER_0_27_54
*1037 FILLER_0_27_57
*1038 FILLER_0_27_63
*1039 FILLER_0_27_75
*1040 FILLER_0_27_81
*1041 FILLER_0_28_110
*1042 FILLER_0_28_122
*1043 FILLER_0_28_134
*1044 FILLER_0_28_138
*1045 FILLER_0_28_141
*1046 FILLER_0_28_145
*1047 FILLER_0_28_15
*1048 FILLER_0_28_176
*1049 FILLER_0_28_188
*1050 FILLER_0_28_197
*1051 FILLER_0_28_227
*1052 FILLER_0_28_239
*1053 FILLER_0_28_251
*1054 FILLER_0_28_253
*1055 FILLER_0_28_27
*1056 FILLER_0_28_274
*1057 FILLER_0_28_280
*1058 FILLER_0_28_284
*1059 FILLER_0_28_29
*1060 FILLER_0_28_3
*1061 FILLER_0_28_301
*1062 FILLER_0_28_332
*1063 FILLER_0_28_41
*1064 FILLER_0_28_53
*1065 FILLER_0_28_80
*1066 FILLER_0_28_92
*1067 FILLER_0_28_98
*1068 FILLER_0_29_116
*1069 FILLER_0_29_128
*1070 FILLER_0_29_144
*1071 FILLER_0_29_148
*1072 FILLER_0_29_153
*1073 FILLER_0_29_165
*1074 FILLER_0_29_202
*1075 FILLER_0_29_206
*1076 FILLER_0_29_223
*1077 FILLER_0_29_225
*1078 FILLER_0_29_237
*1079 FILLER_0_29_248
*1080 FILLER_0_29_261
*1081 FILLER_0_29_273
*1082 FILLER_0_29_279
*1083 FILLER_0_29_281
*1084 FILLER_0_29_293
*1085 FILLER_0_29_3
*1086 FILLER_0_29_305
*1087 FILLER_0_29_309
*1088 FILLER_0_29_319
*1089 FILLER_0_29_333
*1090 FILLER_0_29_34
*1091 FILLER_0_29_46
*1092 FILLER_0_29_9
*1093 FILLER_0_2_109
*1094 FILLER_0_2_121
*1095 FILLER_0_2_133
*1096 FILLER_0_2_139
*1097 FILLER_0_2_141
*1098 FILLER_0_2_15
*1099 FILLER_0_2_153
*1100 FILLER_0_2_165
*1101 FILLER_0_2_177
*1102 FILLER_0_2_189
*1103 FILLER_0_2_195
*1104 FILLER_0_2_197
*1105 FILLER_0_2_209
*1106 FILLER_0_2_221
*1107 FILLER_0_2_233
*1108 FILLER_0_2_245
*1109 FILLER_0_2_251
*1110 FILLER_0_2_253
*1111 FILLER_0_2_265
*1112 FILLER_0_2_27
*1113 FILLER_0_2_277
*1114 FILLER_0_2_289
*1115 FILLER_0_2_29
*1116 FILLER_0_2_3
*1117 FILLER_0_2_301
*1118 FILLER_0_2_307
*1119 FILLER_0_2_309
*1120 FILLER_0_2_321
*1121 FILLER_0_2_333
*1122 FILLER_0_2_41
*1123 FILLER_0_2_53
*1124 FILLER_0_2_65
*1125 FILLER_0_2_77
*1126 FILLER_0_2_83
*1127 FILLER_0_2_85
*1128 FILLER_0_2_97
*1129 FILLER_0_30_105
*1130 FILLER_0_30_124
*1131 FILLER_0_30_131
*1132 FILLER_0_30_139
*1133 FILLER_0_30_141
*1134 FILLER_0_30_156
*1135 FILLER_0_30_178
*1136 FILLER_0_30_202
*1137 FILLER_0_30_214
*1138 FILLER_0_30_226
*1139 FILLER_0_30_250
*1140 FILLER_0_30_253
*1141 FILLER_0_30_269
*1142 FILLER_0_30_290
*1143 FILLER_0_30_3
*1144 FILLER_0_30_302
*1145 FILLER_0_30_329
*1146 FILLER_0_30_37
*1147 FILLER_0_30_46
*1148 FILLER_0_30_81
*1149 FILLER_0_30_85
*1150 FILLER_0_30_97
*1151 FILLER_0_31_113
*1152 FILLER_0_31_125
*1153 FILLER_0_31_137
*1154 FILLER_0_31_150
*1155 FILLER_0_31_157
*1156 FILLER_0_31_165
*1157 FILLER_0_31_177
*1158 FILLER_0_31_209
*1159 FILLER_0_31_21
*1160 FILLER_0_31_221
*1161 FILLER_0_31_3
*1162 FILLER_0_31_301
*1163 FILLER_0_31_315
*1164 FILLER_0_31_333
*1165 FILLER_0_31_40
*1166 FILLER_0_31_48
*1167 FILLER_0_31_57
*1168 FILLER_0_32_109
*1169 FILLER_0_32_121
*1170 FILLER_0_32_128
*1171 FILLER_0_32_15
*1172 FILLER_0_32_158
*1173 FILLER_0_32_170
*1174 FILLER_0_32_194
*1175 FILLER_0_32_220
*1176 FILLER_0_32_228
*1177 FILLER_0_32_234
*1178 FILLER_0_32_250
*1179 FILLER_0_32_253
*1180 FILLER_0_32_261
*1181 FILLER_0_32_292
*1182 FILLER_0_32_3
*1183 FILLER_0_32_303
*1184 FILLER_0_32_307
*1185 FILLER_0_32_309
*1186 FILLER_0_32_321
*1187 FILLER_0_32_333
*1188 FILLER_0_32_37
*1189 FILLER_0_32_49
*1190 FILLER_0_32_55
*1191 FILLER_0_32_89
*1192 FILLER_0_33_113
*1193 FILLER_0_33_137
*1194 FILLER_0_33_15
*1195 FILLER_0_33_156
*1196 FILLER_0_33_164
*1197 FILLER_0_33_169
*1198 FILLER_0_33_177
*1199 FILLER_0_33_208
*1200 FILLER_0_33_220
*1201 FILLER_0_33_248
*1202 FILLER_0_33_254
*1203 FILLER_0_33_266
*1204 FILLER_0_33_270
*1205 FILLER_0_33_279
*1206 FILLER_0_33_281
*1207 FILLER_0_33_3
*1208 FILLER_0_33_300
*1209 FILLER_0_33_312
*1210 FILLER_0_33_324
*1211 FILLER_0_33_332
*1212 FILLER_0_33_45
*1213 FILLER_0_33_53
*1214 FILLER_0_33_57
*1215 FILLER_0_33_81
*1216 FILLER_0_33_93
*1217 FILLER_0_34_101
*1218 FILLER_0_34_138
*1219 FILLER_0_34_144
*1220 FILLER_0_34_159
*1221 FILLER_0_34_163
*1222 FILLER_0_34_170
*1223 FILLER_0_34_182
*1224 FILLER_0_34_190
*1225 FILLER_0_34_200
*1226 FILLER_0_34_212
*1227 FILLER_0_34_224
*1228 FILLER_0_34_232
*1229 FILLER_0_34_236
*1230 FILLER_0_34_246
*1231 FILLER_0_34_253
*1232 FILLER_0_34_286
*1233 FILLER_0_34_298
*1234 FILLER_0_34_3
*1235 FILLER_0_34_306
*1236 FILLER_0_34_309
*1237 FILLER_0_34_321
*1238 FILLER_0_34_333
*1239 FILLER_0_34_51
*1240 FILLER_0_34_79
*1241 FILLER_0_34_83
*1242 FILLER_0_34_85
*1243 FILLER_0_34_97
*1244 FILLER_0_35_113
*1245 FILLER_0_35_124
*1246 FILLER_0_35_128
*1247 FILLER_0_35_136
*1248 FILLER_0_35_142
*1249 FILLER_0_35_146
*1250 FILLER_0_35_15
*1251 FILLER_0_35_150
*1252 FILLER_0_35_166
*1253 FILLER_0_35_178
*1254 FILLER_0_35_206
*1255 FILLER_0_35_218
*1256 FILLER_0_35_225
*1257 FILLER_0_35_264
*1258 FILLER_0_35_275
*1259 FILLER_0_35_279
*1260 FILLER_0_35_290
*1261 FILLER_0_35_3
*1262 FILLER_0_35_302
*1263 FILLER_0_35_314
*1264 FILLER_0_35_326
*1265 FILLER_0_35_334
*1266 FILLER_0_35_41
*1267 FILLER_0_35_53
*1268 FILLER_0_35_57
*1269 FILLER_0_35_85
*1270 FILLER_0_35_93
*1271 FILLER_0_35_99
*1272 FILLER_0_36_120
*1273 FILLER_0_36_128
*1274 FILLER_0_36_135
*1275 FILLER_0_36_139
*1276 FILLER_0_36_147
*1277 FILLER_0_36_15
*1278 FILLER_0_36_195
*1279 FILLER_0_36_197
*1280 FILLER_0_36_21
*1281 FILLER_0_36_221
*1282 FILLER_0_36_265
*1283 FILLER_0_36_287
*1284 FILLER_0_36_299
*1285 FILLER_0_36_3
*1286 FILLER_0_36_307
*1287 FILLER_0_36_309
*1288 FILLER_0_36_321
*1289 FILLER_0_36_333
*1290 FILLER_0_36_43
*1291 FILLER_0_36_55
*1292 FILLER_0_36_61
*1293 FILLER_0_37_113
*1294 FILLER_0_37_15
*1295 FILLER_0_37_160
*1296 FILLER_0_37_192
*1297 FILLER_0_37_231
*1298 FILLER_0_37_235
*1299 FILLER_0_37_257
*1300 FILLER_0_37_269
*1301 FILLER_0_37_274
*1302 FILLER_0_37_290
*1303 FILLER_0_37_3
*1304 FILLER_0_37_302
*1305 FILLER_0_37_314
*1306 FILLER_0_37_326
*1307 FILLER_0_37_334
*1308 FILLER_0_37_50
*1309 FILLER_0_37_57
*1310 FILLER_0_37_69
*1311 FILLER_0_37_98
*1312 FILLER_0_38_10
*1313 FILLER_0_38_109
*1314 FILLER_0_38_113
*1315 FILLER_0_38_125
*1316 FILLER_0_38_131
*1317 FILLER_0_38_135
*1318 FILLER_0_38_139
*1319 FILLER_0_38_14
*1320 FILLER_0_38_141
*1321 FILLER_0_38_149
*1322 FILLER_0_38_160
*1323 FILLER_0_38_169
*1324 FILLER_0_38_18
*1325 FILLER_0_38_181
*1326 FILLER_0_38_193
*1327 FILLER_0_38_197
*1328 FILLER_0_38_22
*1329 FILLER_0_38_225
*1330 FILLER_0_38_237
*1331 FILLER_0_38_249
*1332 FILLER_0_38_253
*1333 FILLER_0_38_265
*1334 FILLER_0_38_277
*1335 FILLER_0_38_281
*1336 FILLER_0_38_293
*1337 FILLER_0_38_305
*1338 FILLER_0_38_312
*1339 FILLER_0_38_318
*1340 FILLER_0_38_32
*1341 FILLER_0_38_322
*1342 FILLER_0_38_326
*1343 FILLER_0_38_334
*1344 FILLER_0_38_38
*1345 FILLER_0_38_42
*1346 FILLER_0_38_46
*1347 FILLER_0_38_50
*1348 FILLER_0_38_54
*1349 FILLER_0_38_57
*1350 FILLER_0_38_6
*1351 FILLER_0_38_62
*1352 FILLER_0_38_74
*1353 FILLER_0_38_78
*1354 FILLER_0_38_85
*1355 FILLER_0_38_97
*1356 FILLER_0_3_105
*1357 FILLER_0_3_111
*1358 FILLER_0_3_113
*1359 FILLER_0_3_125
*1360 FILLER_0_3_137
*1361 FILLER_0_3_149
*1362 FILLER_0_3_15
*1363 FILLER_0_3_161
*1364 FILLER_0_3_167
*1365 FILLER_0_3_169
*1366 FILLER_0_3_181
*1367 FILLER_0_3_193
*1368 FILLER_0_3_205
*1369 FILLER_0_3_217
*1370 FILLER_0_3_223
*1371 FILLER_0_3_225
*1372 FILLER_0_3_237
*1373 FILLER_0_3_249
*1374 FILLER_0_3_261
*1375 FILLER_0_3_27
*1376 FILLER_0_3_273
*1377 FILLER_0_3_279
*1378 FILLER_0_3_281
*1379 FILLER_0_3_293
*1380 FILLER_0_3_3
*1381 FILLER_0_3_305
*1382 FILLER_0_3_317
*1383 FILLER_0_3_329
*1384 FILLER_0_3_39
*1385 FILLER_0_3_51
*1386 FILLER_0_3_55
*1387 FILLER_0_3_57
*1388 FILLER_0_3_69
*1389 FILLER_0_3_81
*1390 FILLER_0_3_93
*1391 FILLER_0_4_109
*1392 FILLER_0_4_121
*1393 FILLER_0_4_133
*1394 FILLER_0_4_139
*1395 FILLER_0_4_141
*1396 FILLER_0_4_15
*1397 FILLER_0_4_153
*1398 FILLER_0_4_165
*1399 FILLER_0_4_177
*1400 FILLER_0_4_189
*1401 FILLER_0_4_195
*1402 FILLER_0_4_197
*1403 FILLER_0_4_209
*1404 FILLER_0_4_221
*1405 FILLER_0_4_233
*1406 FILLER_0_4_245
*1407 FILLER_0_4_251
*1408 FILLER_0_4_253
*1409 FILLER_0_4_265
*1410 FILLER_0_4_27
*1411 FILLER_0_4_277
*1412 FILLER_0_4_289
*1413 FILLER_0_4_29
*1414 FILLER_0_4_3
*1415 FILLER_0_4_301
*1416 FILLER_0_4_307
*1417 FILLER_0_4_309
*1418 FILLER_0_4_321
*1419 FILLER_0_4_333
*1420 FILLER_0_4_41
*1421 FILLER_0_4_53
*1422 FILLER_0_4_65
*1423 FILLER_0_4_77
*1424 FILLER_0_4_83
*1425 FILLER_0_4_85
*1426 FILLER_0_4_97
*1427 FILLER_0_5_105
*1428 FILLER_0_5_111
*1429 FILLER_0_5_113
*1430 FILLER_0_5_125
*1431 FILLER_0_5_137
*1432 FILLER_0_5_149
*1433 FILLER_0_5_15
*1434 FILLER_0_5_161
*1435 FILLER_0_5_167
*1436 FILLER_0_5_169
*1437 FILLER_0_5_181
*1438 FILLER_0_5_193
*1439 FILLER_0_5_205
*1440 FILLER_0_5_217
*1441 FILLER_0_5_223
*1442 FILLER_0_5_225
*1443 FILLER_0_5_237
*1444 FILLER_0_5_249
*1445 FILLER_0_5_261
*1446 FILLER_0_5_27
*1447 FILLER_0_5_273
*1448 FILLER_0_5_279
*1449 FILLER_0_5_281
*1450 FILLER_0_5_293
*1451 FILLER_0_5_3
*1452 FILLER_0_5_305
*1453 FILLER_0_5_317
*1454 FILLER_0_5_329
*1455 FILLER_0_5_39
*1456 FILLER_0_5_51
*1457 FILLER_0_5_55
*1458 FILLER_0_5_57
*1459 FILLER_0_5_69
*1460 FILLER_0_5_81
*1461 FILLER_0_5_93
*1462 FILLER_0_6_109
*1463 FILLER_0_6_121
*1464 FILLER_0_6_133
*1465 FILLER_0_6_139
*1466 FILLER_0_6_141
*1467 FILLER_0_6_15
*1468 FILLER_0_6_153
*1469 FILLER_0_6_165
*1470 FILLER_0_6_177
*1471 FILLER_0_6_189
*1472 FILLER_0_6_195
*1473 FILLER_0_6_197
*1474 FILLER_0_6_209
*1475 FILLER_0_6_221
*1476 FILLER_0_6_233
*1477 FILLER_0_6_245
*1478 FILLER_0_6_251
*1479 FILLER_0_6_253
*1480 FILLER_0_6_265
*1481 FILLER_0_6_27
*1482 FILLER_0_6_277
*1483 FILLER_0_6_289
*1484 FILLER_0_6_29
*1485 FILLER_0_6_3
*1486 FILLER_0_6_301
*1487 FILLER_0_6_307
*1488 FILLER_0_6_309
*1489 FILLER_0_6_321
*1490 FILLER_0_6_333
*1491 FILLER_0_6_41
*1492 FILLER_0_6_53
*1493 FILLER_0_6_65
*1494 FILLER_0_6_77
*1495 FILLER_0_6_83
*1496 FILLER_0_6_85
*1497 FILLER_0_6_97
*1498 FILLER_0_7_105
*1499 FILLER_0_7_111
*1500 FILLER_0_7_113
*1501 FILLER_0_7_125
*1502 FILLER_0_7_137
*1503 FILLER_0_7_149
*1504 FILLER_0_7_15
*1505 FILLER_0_7_161
*1506 FILLER_0_7_167
*1507 FILLER_0_7_169
*1508 FILLER_0_7_181
*1509 FILLER_0_7_193
*1510 FILLER_0_7_205
*1511 FILLER_0_7_217
*1512 FILLER_0_7_223
*1513 FILLER_0_7_225
*1514 FILLER_0_7_237
*1515 FILLER_0_7_249
*1516 FILLER_0_7_261
*1517 FILLER_0_7_27
*1518 FILLER_0_7_273
*1519 FILLER_0_7_279
*1520 FILLER_0_7_281
*1521 FILLER_0_7_293
*1522 FILLER_0_7_3
*1523 FILLER_0_7_305
*1524 FILLER_0_7_317
*1525 FILLER_0_7_329
*1526 FILLER_0_7_39
*1527 FILLER_0_7_51
*1528 FILLER_0_7_55
*1529 FILLER_0_7_57
*1530 FILLER_0_7_69
*1531 FILLER_0_7_81
*1532 FILLER_0_7_93
*1533 FILLER_0_8_109
*1534 FILLER_0_8_121
*1535 FILLER_0_8_133
*1536 FILLER_0_8_139
*1537 FILLER_0_8_141
*1538 FILLER_0_8_15
*1539 FILLER_0_8_153
*1540 FILLER_0_8_165
*1541 FILLER_0_8_177
*1542 FILLER_0_8_189
*1543 FILLER_0_8_195
*1544 FILLER_0_8_197
*1545 FILLER_0_8_209
*1546 FILLER_0_8_221
*1547 FILLER_0_8_233
*1548 FILLER_0_8_245
*1549 FILLER_0_8_251
*1550 FILLER_0_8_253
*1551 FILLER_0_8_265
*1552 FILLER_0_8_27
*1553 FILLER_0_8_277
*1554 FILLER_0_8_289
*1555 FILLER_0_8_29
*1556 FILLER_0_8_3
*1557 FILLER_0_8_301
*1558 FILLER_0_8_307
*1559 FILLER_0_8_309
*1560 FILLER_0_8_321
*1561 FILLER_0_8_333
*1562 FILLER_0_8_41
*1563 FILLER_0_8_53
*1564 FILLER_0_8_65
*1565 FILLER_0_8_77
*1566 FILLER_0_8_83
*1567 FILLER_0_8_85
*1568 FILLER_0_8_97
*1569 FILLER_0_9_105
*1570 FILLER_0_9_111
*1571 FILLER_0_9_113
*1572 FILLER_0_9_125
*1573 FILLER_0_9_137
*1574 FILLER_0_9_149
*1575 FILLER_0_9_15
*1576 FILLER_0_9_161
*1577 FILLER_0_9_167
*1578 FILLER_0_9_169
*1579 FILLER_0_9_181
*1580 FILLER_0_9_193
*1581 FILLER_0_9_205
*1582 FILLER_0_9_217
*1583 FILLER_0_9_223
*1584 FILLER_0_9_225
*1585 FILLER_0_9_237
*1586 FILLER_0_9_249