*SPEF "ieee 1481-1999"
*DESIGN "tt_um_ender_clock"
*DATE "14:36:43 Friday May 10, 2024"
*VENDOR "The OpenROAD Project"
*PROGRAM "OpenROAD"
*VERSION "da0053d7b0014ab9c87ea148875ff6c2a0f9b658"
*DESIGN_FLOW "NAME_SCOPE LOCAL" "PIN_CAP NONE"
*DIVIDER /
*DELIMITER :
*BUS_DELIMITER []
*T_UNIT 1 NS
*C_UNIT 1 PF
*R_UNIT 1 OHM
*L_UNIT 1 HENRY

*NAME_MAP
*3 clk
*4 ena
*5 rst_n
*6 ui_in[0]
*7 ui_in[1]
*8 ui_in[2]
*9 ui_in[3]
*10 ui_in[4]
*11 ui_in[5]
*12 ui_in[6]
*13 ui_in[7]
*14 uio_in[0]
*15 uio_in[1]
*16 uio_in[2]
*17 uio_in[3]
*18 uio_in[4]
*19 uio_in[5]
*20 uio_in[6]
*21 uio_in[7]
*22 net16
*23 net17
*24 net18
*25 net19
*26 net20
*27 net21
*28 net22
*29 net23
*30 uio_out[0]
*31 uio_out[1]
*32 uio_out[2]
*33 uio_out[3]
*34 uio_out[4]
*35 uio_out[5]
*36 uio_out[6]
*37 uio_out[7]
*38 uo_out[0]
*39 uo_out[1]
*40 uo_out[2]
*41 uo_out[3]
*42 uo_out[4]
*43 uo_out[5]
*44 uo_out[6]
*45 uo_out[7]
*46 _0000_
*47 _0001_
*48 _0002_
*49 _0003_
*50 _0004_
*51 _0005_
*52 _0006_
*53 _0007_
*54 _0008_
*55 _0009_
*56 _0010_
*57 _0011_
*58 _0012_
*59 _0013_
*60 _0014_
*61 _0015_
*62 _0016_
*63 _0017_
*64 _0018_
*65 _0019_
*66 _0020_
*67 _0021_
*68 _0022_
*69 _0023_
*70 _0024_
*71 _0025_
*72 _0026_
*73 _0027_
*74 _0028_
*75 _0029_
*76 _0030_
*77 _0031_
*78 _0032_
*79 _0033_
*80 _0034_
*81 _0035_
*82 _0036_
*83 _0037_
*84 _0038_
*85 _0039_
*86 _0040_
*87 _0041_
*88 _0042_
*89 _0043_
*90 _0044_
*91 _0045_
*92 _0046_
*93 _0047_
*94 _0048_
*95 _0049_
*96 _0050_
*97 _0051_
*98 _0052_
*99 _0053_
*100 _0054_
*101 _0055_
*102 _0056_
*103 _0057_
*104 _0058_
*105 _0059_
*106 _0060_
*107 _0061_
*108 _0062_
*109 _0063_
*110 _0064_
*111 _0065_
*112 _0066_
*113 _0067_
*114 _0068_
*115 _0069_
*116 _0070_
*117 _0071_
*118 _0072_
*119 _0073_
*120 _0074_
*121 _0075_
*122 _0076_
*123 _0077_
*124 _0078_
*125 _0079_
*126 _0080_
*127 _0081_
*128 _0082_
*129 _0083_
*130 _0084_
*131 _0085_
*132 _0086_
*133 _0087_
*134 _0088_
*135 _0089_
*136 _0090_
*137 _0091_
*138 _0092_
*139 _0093_
*140 _0094_
*141 _0095_
*142 _0096_
*143 _0097_
*144 _0098_
*145 _0099_
*146 _0100_
*147 _0101_
*148 _0102_
*149 _0103_
*150 _0104_
*151 _0105_
*152 _0106_
*153 _0107_
*154 _0108_
*155 _0109_
*156 _0110_
*157 _0111_
*158 _0112_
*159 _0113_
*160 _0114_
*161 _0115_
*162 _0116_
*163 _0117_
*164 _0118_
*165 _0119_
*166 _0120_
*167 _0121_
*168 _0122_
*169 _0123_
*170 _0124_
*171 _0125_
*172 _0126_
*173 _0127_
*174 _0128_
*175 _0129_
*176 _0130_
*177 _0131_
*178 _0132_
*179 _0133_
*180 _0134_
*181 _0135_
*182 _0136_
*183 _0137_
*184 _0138_
*185 _0139_
*186 _0140_
*187 _0141_
*188 _0142_
*189 _0143_
*190 _0144_
*191 _0145_
*192 _0146_
*193 _0147_
*194 _0148_
*195 _0149_
*196 _0150_
*197 _0151_
*198 _0152_
*199 _0153_
*200 _0154_
*201 _0155_
*202 _0156_
*203 _0157_
*204 _0158_
*205 _0159_
*206 _0160_
*207 _0161_
*208 _0162_
*209 _0163_
*210 _0164_
*211 _0165_
*212 _0166_
*213 _0167_
*214 _0168_
*215 _0169_
*216 _0170_
*217 _0171_
*218 _0172_
*219 _0173_
*220 _0174_
*221 _0175_
*222 _0176_
*223 _0177_
*224 _0178_
*225 _0179_
*226 _0180_
*227 _0181_
*228 _0182_
*229 _0183_
*230 _0184_
*231 _0185_
*232 _0186_
*233 _0187_
*234 _0188_
*235 _0189_
*236 _0190_
*237 _0191_
*238 _0192_
*239 _0193_
*240 _0194_
*241 _0195_
*242 _0196_
*243 _0197_
*244 _0198_
*245 _0199_
*246 _0200_
*247 _0201_
*248 _0202_
*249 _0203_
*250 _0204_
*251 _0205_
*252 _0206_
*253 _0207_
*254 _0208_
*255 _0209_
*256 _0210_
*257 _0211_
*258 _0212_
*259 _0213_
*260 _0214_
*261 _0215_
*262 _0216_
*263 _0217_
*264 _0218_
*265 _0219_
*266 _0220_
*267 _0221_
*268 _0222_
*269 _0223_
*270 _0224_
*271 _0225_
*272 _0226_
*273 _0227_
*274 _0228_
*275 _0229_
*276 _0230_
*277 _0231_
*278 _0232_
*279 _0233_
*280 _0234_
*281 _0235_
*282 _0236_
*283 _0237_
*284 _0238_
*285 _0239_
*286 _0240_
*287 _0241_
*288 _0242_
*289 _0243_
*290 _0244_
*291 _0245_
*292 _0246_
*293 _0247_
*294 _0248_
*295 _0249_
*296 _0250_
*297 _0251_
*298 _0252_
*299 _0253_
*300 _0254_
*301 _0255_
*302 _0256_
*303 _0257_
*304 _0258_
*305 _0259_
*306 _0260_
*307 _0261_
*308 _0262_
*309 _0263_
*310 _0264_
*311 _0265_
*312 _0266_
*313 _0267_
*314 _0268_
*315 _0269_
*316 _0270_
*317 _0271_
*318 _0272_
*319 _0273_
*320 _0274_
*321 _0275_
*322 _0276_
*323 _0277_
*324 _0278_
*325 _0279_
*326 _0280_
*327 _0281_
*328 _0282_
*329 _0283_
*330 _0284_
*331 _0285_
*332 _0286_
*333 _0287_
*334 _0288_
*335 _0289_
*336 _0290_
*337 _0291_
*338 _0292_
*339 _0293_
*340 _0294_
*341 _0295_
*342 _0296_
*343 _0297_
*344 _0298_
*345 _0299_
*346 _0300_
*347 _0301_
*348 _0302_
*349 _0303_
*350 _0304_
*351 _0305_
*352 _0306_
*353 _0307_
*354 _0308_
*355 _0309_
*356 _0310_
*357 _0311_
*358 _0312_
*359 _0313_
*360 _0314_
*361 _0315_
*362 _0316_
*363 _0317_
*364 _0318_
*365 _0319_
*366 _0320_
*367 _0321_
*368 _0322_
*369 _0323_
*370 _0324_
*371 _0325_
*372 _0326_
*373 _0327_
*374 _0328_
*375 _0329_
*376 _0330_
*377 _0331_
*378 _0332_
*379 _0333_
*380 _0334_
*381 _0335_
*382 _0336_
*383 _0337_
*384 _0338_
*385 _0339_
*386 _0340_
*387 _0341_
*388 _0342_
*389 _0343_
*390 _0344_
*391 _0345_
*392 _0346_
*393 _0347_
*394 _0348_
*395 _0349_
*396 _0350_
*397 _0351_
*398 _0352_
*399 _0353_
*400 _0354_
*401 _0355_
*402 _0356_
*403 _0357_
*404 _0358_
*405 _0359_
*406 _0360_
*407 _0361_
*408 _0362_
*409 _0363_
*410 _0364_
*411 _0365_
*412 _0366_
*413 _0367_
*414 _0368_
*415 _0369_
*416 _0370_
*417 _0371_
*418 _0372_
*419 _0373_
*420 _0374_
*421 _0375_
*422 _0376_
*423 _0377_
*424 _0378_
*425 _0379_
*426 _0380_
*427 _0381_
*428 _0382_
*429 _0383_
*430 _0384_
*431 _0385_
*432 _0386_
*433 _0387_
*434 _0388_
*435 _0389_
*436 _0390_
*437 _0391_
*438 _0392_
*439 _0393_
*440 _0394_
*441 _0395_
*442 _0396_
*443 _0397_
*444 _0398_
*445 _0399_
*446 _0400_
*447 _0401_
*448 _0402_
*449 _0403_
*450 _0404_
*451 _0405_
*452 _0406_
*453 _0407_
*454 _0408_
*455 _0409_
*456 _0410_
*457 _0411_
*458 _0412_
*459 _0413_
*460 _0414_
*461 _0415_
*462 _0416_
*463 _0417_
*464 _0418_
*465 _0419_
*466 _0420_
*467 _0421_
*468 _0422_
*469 _0423_
*470 clknet_0_clk
*471 clknet_4_0_0_clk
*472 clknet_4_10_0_clk
*473 clknet_4_11_0_clk
*474 clknet_4_12_0_clk
*475 clknet_4_13_0_clk
*476 clknet_4_14_0_clk
*477 clknet_4_15_0_clk
*478 clknet_4_1_0_clk
*479 clknet_4_2_0_clk
*480 clknet_4_3_0_clk
*481 clknet_4_4_0_clk
*482 clknet_4_5_0_clk
*483 clknet_4_6_0_clk
*484 clknet_4_7_0_clk
*485 clknet_4_8_0_clk
*486 clknet_4_9_0_clk
*487 clock_counter\[0\]
*488 clock_counter\[10\]
*489 clock_counter\[11\]
*490 clock_counter\[12\]
*491 clock_counter\[13\]
*492 clock_counter\[1\]
*493 clock_counter\[2\]
*494 clock_counter\[6\]
*495 clock_counter\[7\]
*496 clock_counter\[8\]
*497 clock_counter\[9\]
*498 clock_run_flag
*499 day_of_month_0\.month\[0\]
*500 day_of_month_0\.month\[1\]
*501 day_of_month_0\.month\[2\]
*502 day_of_month_0\.month\[3\]
*503 key_add\.key_filter\[0\]
*504 key_add\.key_filter\[1\]
*505 key_add\.key_filter\[2\]
*506 key_add\.key_filter\[3\]
*507 key_add\.time_flag
*508 key_mode\.key_filter\[0\]
*509 key_mode\.key_filter\[1\]
*510 key_mode\.key_filter\[2\]
*511 key_mode\.key_filter\[3\]
*512 net1
*513 net10
*514 net100
*515 net101
*516 net102
*517 net103
*518 net104
*519 net105
*520 net106
*521 net107
*522 net108
*523 net109
*524 net11
*525 net110
*526 net111
*527 net112
*528 net113
*529 net114
*530 net115
*531 net116
*532 net117
*533 net118
*534 net119
*535 net12
*536 net120
*537 net121
*538 net122
*539 net123
*540 net124
*541 net125
*542 net126
*543 net127
*544 net128
*545 net129
*546 net13
*547 net130
*548 net131
*549 net132
*550 net133
*551 net134
*552 net135
*553 net136
*554 net137
*555 net138
*556 net139
*557 net14
*558 net140
*559 net141
*560 net142
*561 net143
*562 net15
*563 net2
*564 net24
*565 net25
*566 net26
*567 net27
*568 net28
*569 net29
*570 net3
*571 net30
*572 net31
*573 net32
*574 net33
*575 net34
*576 net35
*577 net36
*578 net37
*579 net38
*580 net39
*581 net4
*582 net40
*583 net41
*584 net42
*585 net43
*586 net44
*587 net45
*588 net46
*589 net47
*590 net48
*591 net49
*592 net5
*593 net50
*594 net51
*595 net52
*596 net53
*597 net54
*598 net55
*599 net56
*600 net57
*601 net58
*602 net59
*603 net6
*604 net60
*605 net61
*606 net62
*607 net63
*608 net64
*609 net65
*610 net66
*611 net67
*612 net68
*613 net69
*614 net7
*615 net70
*616 net71
*617 net72
*618 net73
*619 net74
*620 net75
*621 net76
*622 net77
*623 net78
*624 net79
*625 net8
*626 net80
*627 net81
*628 net82
*629 net83
*630 net84
*631 net85
*632 net86
*633 net87
*634 net88
*635 net89
*636 net9
*637 net90
*638 net91
*639 net92
*640 net93
*641 net94
*642 net95
*643 net96
*644 net97
*645 net98
*646 net99
*647 segment_D56
*648 segment_show1\.byte_status\[0\]
*649 segment_show1\.byte_status\[1\]
*650 segment_show1\.byte_status\[2\]
*651 time_control_10ms\.data_old\[0\]
*652 time_control_10ms\.data_old\[1\]
*653 time_control_10ms\.data_old\[2\]
*654 time_control_10ms\.data_old\[3\]
*655 time_control_10ms\.data_old\[4\]
*656 time_control_10ms\.data_old\[5\]
*657 time_control_10ms\.data_old\[6\]
*658 time_control_10ms\.data_old\[7\]
*659 time_control_10ms\.data_old\[8\]
*660 time_control_10ms\.data_out\[0\]
*661 time_control_10ms\.data_out\[1\]
*662 time_control_10ms\.data_out\[2\]
*663 time_control_10ms\.data_out\[3\]
*664 time_control_10ms\.data_out\[4\]
*665 time_control_10ms\.data_out\[5\]
*666 time_control_10ms\.data_out\[6\]
*667 time_control_10ms\.data_out\[7\]
*668 time_control_10ms\.data_out\[8\]
*669 time_control_day\.carry_flag
*670 time_control_day\.data_old\[0\]
*671 time_control_day\.data_old\[1\]
*672 time_control_day\.data_old\[2\]
*673 time_control_day\.data_old\[3\]
*674 time_control_day\.data_old\[4\]
*675 time_control_day\.data_out\[0\]
*676 time_control_day\.data_out\[1\]
*677 time_control_day\.data_out\[2\]
*678 time_control_day\.data_out\[3\]
*679 time_control_day\.data_out\[4\]
*680 time_control_hour\.carry_flag
*681 time_control_hour\.data_old\[0\]
*682 time_control_hour\.data_old\[1\]
*683 time_control_hour\.data_old\[2\]
*684 time_control_hour\.data_old\[3\]
*685 time_control_hour\.data_old\[4\]
*686 time_control_hour\.data_out\[0\]
*687 time_control_hour\.data_out\[1\]
*688 time_control_hour\.data_out\[2\]
*689 time_control_hour\.data_out\[3\]
*690 time_control_hour\.data_out\[4\]
*691 time_control_minute\.carry_flag
*692 time_control_minute\.data_old\[0\]
*693 time_control_minute\.data_old\[1\]
*694 time_control_minute\.data_old\[2\]
*695 time_control_minute\.data_old\[3\]
*696 time_control_minute\.data_old\[4\]
*697 time_control_minute\.data_old\[5\]
*698 time_control_minute\.data_out\[0\]
*699 time_control_minute\.data_out\[1\]
*700 time_control_minute\.data_out\[2\]
*701 time_control_minute\.data_out\[3\]
*702 time_control_minute\.data_out\[4\]
*703 time_control_minute\.data_out\[5\]
*704 time_control_second\.add_req
*705 time_control_second\.carry_flag
*706 time_control_second\.data_old\[0\]
*707 time_control_second\.data_old\[1\]
*708 time_control_second\.data_old\[2\]
*709 time_control_second\.data_old\[3\]
*710 time_control_second\.data_old\[4\]
*711 time_control_second\.data_old\[5\]
*712 time_control_second\.data_out\[0\]
*713 time_control_second\.data_out\[1\]
*714 time_control_second\.data_out\[2\]
*715 time_control_second\.data_out\[3\]
*716 time_control_second\.data_out\[4\]
*717 time_control_second\.data_out\[5\]
*718 time_control_second\.reset
*719 time_control_second_flags\.data_old\[0\]
*720 time_control_second_flags\.data_old\[10\]
*721 time_control_second_flags\.data_old\[11\]
*722 time_control_second_flags\.data_old\[12\]
*723 time_control_second_flags\.data_old\[13\]
*724 time_control_second_flags\.data_old\[14\]
*725 time_control_second_flags\.data_old\[15\]
*726 time_control_second_flags\.data_old\[1\]
*727 time_control_second_flags\.data_old\[2\]
*728 time_control_second_flags\.data_old\[3\]
*729 time_control_second_flags\.data_old\[4\]
*730 time_control_second_flags\.data_old\[5\]
*731 time_control_second_flags\.data_old\[6\]
*732 time_control_second_flags\.data_old\[7\]
*733 time_control_second_flags\.data_old\[8\]
*734 time_control_second_flags\.data_old\[9\]
*735 time_control_second_flags\.data_out\[0\]
*736 time_control_second_flags\.data_out\[10\]
*737 time_control_second_flags\.data_out\[11\]
*738 time_control_second_flags\.data_out\[12\]
*739 time_control_second_flags\.data_out\[13\]
*740 time_control_second_flags\.data_out\[14\]
*741 time_control_second_flags\.data_out\[15\]
*742 time_control_second_flags\.data_out\[1\]
*743 time_control_second_flags\.data_out\[2\]
*744 time_control_second_flags\.data_out\[3\]
*745 time_control_second_flags\.data_out\[4\]
*746 time_control_second_flags\.data_out\[5\]
*747 time_control_second_flags\.data_out\[6\]
*748 time_control_second_flags\.data_out\[7\]
*749 time_control_second_flags\.data_out\[8\]
*750 time_control_second_flags\.data_out\[9\]
*751 time_control_status\.data_out\[0\]
*752 time_control_status\.data_out\[1\]
*753 time_control_status\.data_out\[2\]
*754 FILLER_0_0_109
*755 FILLER_0_0_113
*756 FILLER_0_0_125
*757 FILLER_0_0_137
*758 FILLER_0_0_141
*759 FILLER_0_0_15
*760 FILLER_0_0_153
*761 FILLER_0_0_165
*762 FILLER_0_0_169
*763 FILLER_0_0_181
*764 FILLER_0_0_193
*765 FILLER_0_0_197
*766 FILLER_0_0_209
*767 FILLER_0_0_221
*768 FILLER_0_0_225
*769 FILLER_0_0_237
*770 FILLER_0_0_249
*771 FILLER_0_0_253
*772 FILLER_0_0_265
*773 FILLER_0_0_27
*774 FILLER_0_0_277
*775 FILLER_0_0_281
*776 FILLER_0_0_29
*777 FILLER_0_0_293
*778 FILLER_0_0_3
*779 FILLER_0_0_305
*780 FILLER_0_0_309
*781 FILLER_0_0_321
*782 FILLER_0_0_333
*783 FILLER_0_0_41
*784 FILLER_0_0_53
*785 FILLER_0_0_57
*786 FILLER_0_0_69
*787 FILLER_0_0_81
*788 FILLER_0_0_85
*789 FILLER_0_0_97
*790 FILLER_0_10_149
*791 FILLER_0_10_15
*792 FILLER_0_10_190
*793 FILLER_0_10_197
*794 FILLER_0_10_221
*795 FILLER_0_10_235
*796 FILLER_0_10_264
*797 FILLER_0_10_27
*798 FILLER_0_10_276
*799 FILLER_0_10_288
*800 FILLER_0_10_29
*801 FILLER_0_10_3
*802 FILLER_0_10_300
*803 FILLER_0_10_309
*804 FILLER_0_10_321
*805 FILLER_0_10_333
*806 FILLER_0_10_41
*807 FILLER_0_10_53
*808 FILLER_0_10_82
*809 FILLER_0_10_85
*810 FILLER_0_11_113
*811 FILLER_0_11_121
*812 FILLER_0_11_15
*813 FILLER_0_11_166
*814 FILLER_0_11_185
*815 FILLER_0_11_197
*816 FILLER_0_11_221
*817 FILLER_0_11_225
*818 FILLER_0_11_238
*819 FILLER_0_11_265
*820 FILLER_0_11_27
*821 FILLER_0_11_277
*822 FILLER_0_11_281
*823 FILLER_0_11_293
*824 FILLER_0_11_3
*825 FILLER_0_11_305
*826 FILLER_0_11_317
*827 FILLER_0_11_329
*828 FILLER_0_11_39
*829 FILLER_0_11_51
*830 FILLER_0_11_55
*831 FILLER_0_11_57
*832 FILLER_0_12_109
*833 FILLER_0_12_121
*834 FILLER_0_12_130
*835 FILLER_0_12_141
*836 FILLER_0_12_15
*837 FILLER_0_12_153
*838 FILLER_0_12_168
*839 FILLER_0_12_172
*840 FILLER_0_12_184
*841 FILLER_0_12_188
*842 FILLER_0_12_197
*843 FILLER_0_12_205
*844 FILLER_0_12_209
*845 FILLER_0_12_213
*846 FILLER_0_12_243
*847 FILLER_0_12_268
*848 FILLER_0_12_27
*849 FILLER_0_12_280
*850 FILLER_0_12_29
*851 FILLER_0_12_292
*852 FILLER_0_12_3
*853 FILLER_0_12_304
*854 FILLER_0_12_309
*855 FILLER_0_12_321
*856 FILLER_0_12_333
*857 FILLER_0_12_41
*858 FILLER_0_12_53
*859 FILLER_0_12_61
*860 FILLER_0_12_79
*861 FILLER_0_12_83
*862 FILLER_0_12_93
*863 FILLER_0_12_97
*864 FILLER_0_13_111
*865 FILLER_0_13_113
*866 FILLER_0_13_122
*867 FILLER_0_13_129
*868 FILLER_0_13_133
*869 FILLER_0_13_137
*870 FILLER_0_13_15
*871 FILLER_0_13_158
*872 FILLER_0_13_166
*873 FILLER_0_13_175
*874 FILLER_0_13_201
*875 FILLER_0_13_233
*876 FILLER_0_13_267
*877 FILLER_0_13_27
*878 FILLER_0_13_279
*879 FILLER_0_13_281
*880 FILLER_0_13_293
*881 FILLER_0_13_3
*882 FILLER_0_13_305
*883 FILLER_0_13_317
*884 FILLER_0_13_329
*885 FILLER_0_13_39
*886 FILLER_0_13_51
*887 FILLER_0_13_55
*888 FILLER_0_13_57
*889 FILLER_0_13_69
*890 FILLER_0_13_79
*891 FILLER_0_13_83
*892 FILLER_0_14_128
*893 FILLER_0_14_15
*894 FILLER_0_14_157
*895 FILLER_0_14_164
*896 FILLER_0_14_186
*897 FILLER_0_14_201
*898 FILLER_0_14_209
*899 FILLER_0_14_233
*900 FILLER_0_14_27
*901 FILLER_0_14_272
*902 FILLER_0_14_284
*903 FILLER_0_14_29
*904 FILLER_0_14_296
*905 FILLER_0_14_3
*906 FILLER_0_14_309
*907 FILLER_0_14_321
*908 FILLER_0_14_333
*909 FILLER_0_14_41
*910 FILLER_0_14_53
*911 FILLER_0_14_65
*912 FILLER_0_14_77
*913 FILLER_0_14_83
*914 FILLER_0_14_85
*915 FILLER_0_14_91
*916 FILLER_0_15_111
*917 FILLER_0_15_15
*918 FILLER_0_15_160
*919 FILLER_0_15_169
*920 FILLER_0_15_193
*921 FILLER_0_15_203
*922 FILLER_0_15_215
*923 FILLER_0_15_219
*924 FILLER_0_15_223
*925 FILLER_0_15_241
*926 FILLER_0_15_259
*927 FILLER_0_15_27
*928 FILLER_0_15_273
*929 FILLER_0_15_279
*930 FILLER_0_15_281
*931 FILLER_0_15_293
*932 FILLER_0_15_3
*933 FILLER_0_15_305
*934 FILLER_0_15_317
*935 FILLER_0_15_329
*936 FILLER_0_15_39
*937 FILLER_0_15_51
*938 FILLER_0_15_55
*939 FILLER_0_15_57
*940 FILLER_0_15_69
*941 FILLER_0_15_81
*942 FILLER_0_15_89
*943 FILLER_0_16_130
*944 FILLER_0_16_138
*945 FILLER_0_16_141
*946 FILLER_0_16_15
*947 FILLER_0_16_181
*948 FILLER_0_16_208
*949 FILLER_0_16_220
*950 FILLER_0_16_232
*951 FILLER_0_16_247
*952 FILLER_0_16_251
*953 FILLER_0_16_27
*954 FILLER_0_16_285
*955 FILLER_0_16_29
*956 FILLER_0_16_290
*957 FILLER_0_16_3
*958 FILLER_0_16_302
*959 FILLER_0_16_309
*960 FILLER_0_16_321
*961 FILLER_0_16_333
*962 FILLER_0_16_41
*963 FILLER_0_16_53
*964 FILLER_0_16_65
*965 FILLER_0_16_77
*966 FILLER_0_16_83
*967 FILLER_0_16_85
*968 FILLER_0_16_97
*969 FILLER_0_17_103
*970 FILLER_0_17_111
*971 FILLER_0_17_136
*972 FILLER_0_17_144
*973 FILLER_0_17_15
*974 FILLER_0_17_164
*975 FILLER_0_17_169
*976 FILLER_0_17_181
*977 FILLER_0_17_245
*978 FILLER_0_17_27
*979 FILLER_0_17_279
*980 FILLER_0_17_281
*981 FILLER_0_17_3
*982 FILLER_0_17_302
*983 FILLER_0_17_314
*984 FILLER_0_17_325
*985 FILLER_0_17_333
*986 FILLER_0_17_39
*987 FILLER_0_17_51
*988 FILLER_0_17_55
*989 FILLER_0_17_57
*990 FILLER_0_17_69
*991 FILLER_0_17_81
*992 FILLER_0_17_93
*993 FILLER_0_18_130
*994 FILLER_0_18_138
*995 FILLER_0_18_141
*996 FILLER_0_18_15
*997 FILLER_0_18_175
*998 FILLER_0_18_194
*999 FILLER_0_18_205
*1000 FILLER_0_18_242
*1001 FILLER_0_18_250
*1002 FILLER_0_18_27
*1003 FILLER_0_18_270
*1004 FILLER_0_18_288
*1005 FILLER_0_18_29
*1006 FILLER_0_18_3
*1007 FILLER_0_18_300
*1008 FILLER_0_18_309
*1009 FILLER_0_18_331
*1010 FILLER_0_18_41
*1011 FILLER_0_18_53
*1012 FILLER_0_18_65
*1013 FILLER_0_18_77
*1014 FILLER_0_18_83
*1015 FILLER_0_18_85
*1016 FILLER_0_18_89
*1017 FILLER_0_19_109
*1018 FILLER_0_19_118
*1019 FILLER_0_19_130
*1020 FILLER_0_19_142
*1021 FILLER_0_19_15
*1022 FILLER_0_19_162
*1023 FILLER_0_19_169
*1024 FILLER_0_19_181
*1025 FILLER_0_19_193
*1026 FILLER_0_19_200
*1027 FILLER_0_19_212
*1028 FILLER_0_19_220
*1029 FILLER_0_19_225
*1030 FILLER_0_19_245
*1031 FILLER_0_19_257
*1032 FILLER_0_19_27
*1033 FILLER_0_19_281
*1034 FILLER_0_19_3
*1035 FILLER_0_19_317
*1036 FILLER_0_19_329
*1037 FILLER_0_19_39
*1038 FILLER_0_19_50
*1039 FILLER_0_19_57
*1040 FILLER_0_19_69
*1041 FILLER_0_19_81
*1042 FILLER_0_1_105
*1043 FILLER_0_1_111
*1044 FILLER_0_1_113
*1045 FILLER_0_1_125
*1046 FILLER_0_1_137
*1047 FILLER_0_1_149
*1048 FILLER_0_1_15
*1049 FILLER_0_1_161
*1050 FILLER_0_1_167
*1051 FILLER_0_1_169
*1052 FILLER_0_1_181
*1053 FILLER_0_1_193
*1054 FILLER_0_1_205
*1055 FILLER_0_1_217
*1056 FILLER_0_1_223
*1057 FILLER_0_1_225
*1058 FILLER_0_1_237
*1059 FILLER_0_1_249
*1060 FILLER_0_1_261
*1061 FILLER_0_1_27
*1062 FILLER_0_1_273
*1063 FILLER_0_1_279
*1064 FILLER_0_1_281
*1065 FILLER_0_1_293
*1066 FILLER_0_1_3
*1067 FILLER_0_1_305
*1068 FILLER_0_1_317
*1069 FILLER_0_1_329
*1070 FILLER_0_1_39
*1071 FILLER_0_1_51
*1072 FILLER_0_1_55
*1073 FILLER_0_1_57
*1074 FILLER_0_1_69
*1075 FILLER_0_1_81
*1076 FILLER_0_1_93
*1077 FILLER_0_20_105
*1078 FILLER_0_20_127
*1079 FILLER_0_20_139
*1080 FILLER_0_20_141
*1081 FILLER_0_20_15
*1082 FILLER_0_20_174
*1083 FILLER_0_20_212
*1084 FILLER_0_20_216
*1085 FILLER_0_20_227
*1086 FILLER_0_20_237
*1087 FILLER_0_20_249
*1088 FILLER_0_20_253
*1089 FILLER_0_20_262
*1090 FILLER_0_20_27
*1091 FILLER_0_20_283
*1092 FILLER_0_20_287
*1093 FILLER_0_20_3
*1094 FILLER_0_20_301
*1095 FILLER_0_20_307
*1096 FILLER_0_20_309
*1097 FILLER_0_20_321
*1098 FILLER_0_20_333
*1099 FILLER_0_20_45
*1100 FILLER_0_20_55
*1101 FILLER_0_20_61
*1102 FILLER_0_20_81
*1103 FILLER_0_20_85
*1104 FILLER_0_20_97
*1105 FILLER_0_21_111
*1106 FILLER_0_21_113
*1107 FILLER_0_21_142
*1108 FILLER_0_21_15
*1109 FILLER_0_21_154
*1110 FILLER_0_21_166
*1111 FILLER_0_21_169
*1112 FILLER_0_21_177
*1113 FILLER_0_21_21
*1114 FILLER_0_21_225
*1115 FILLER_0_21_278
*1116 FILLER_0_21_281
*1117 FILLER_0_21_3
*1118 FILLER_0_21_303
*1119 FILLER_0_21_315
*1120 FILLER_0_21_327
*1121 FILLER_0_21_53
*1122 FILLER_0_21_57
*1123 FILLER_0_21_87
*1124 FILLER_0_21_99
*1125 FILLER_0_22_107
*1126 FILLER_0_22_135
*1127 FILLER_0_22_139
*1128 FILLER_0_22_149
*1129 FILLER_0_22_15
*1130 FILLER_0_22_161
*1131 FILLER_0_22_189
*1132 FILLER_0_22_225
*1133 FILLER_0_22_23
*1134 FILLER_0_22_248
*1135 FILLER_0_22_261
*1136 FILLER_0_22_274
*1137 FILLER_0_22_286
*1138 FILLER_0_22_3
*1139 FILLER_0_22_307
*1140 FILLER_0_22_315
*1141 FILLER_0_22_327
*1142 FILLER_0_22_83
*1143 FILLER_0_22_85
*1144 FILLER_0_23_105
*1145 FILLER_0_23_111
*1146 FILLER_0_23_130
*1147 FILLER_0_23_138
*1148 FILLER_0_23_144
*1149 FILLER_0_23_15
*1150 FILLER_0_23_190
*1151 FILLER_0_23_194
*1152 FILLER_0_23_204
*1153 FILLER_0_23_216
*1154 FILLER_0_23_251
*1155 FILLER_0_23_255
*1156 FILLER_0_23_27
*1157 FILLER_0_23_297
*1158 FILLER_0_23_3
*1159 FILLER_0_23_309
*1160 FILLER_0_23_321
*1161 FILLER_0_23_333
*1162 FILLER_0_23_50
*1163 FILLER_0_23_57
*1164 FILLER_0_23_70
*1165 FILLER_0_23_83
*1166 FILLER_0_23_93
*1167 FILLER_0_24_107
*1168 FILLER_0_24_121
*1169 FILLER_0_24_175
*1170 FILLER_0_24_179
*1171 FILLER_0_24_197
*1172 FILLER_0_24_215
*1173 FILLER_0_24_227
*1174 FILLER_0_24_235
*1175 FILLER_0_24_249
*1176 FILLER_0_24_253
*1177 FILLER_0_24_259
*1178 FILLER_0_24_263
*1179 FILLER_0_24_269
*1180 FILLER_0_24_281
*1181 FILLER_0_24_290
*1182 FILLER_0_24_3
*1183 FILLER_0_24_302
*1184 FILLER_0_24_309
*1185 FILLER_0_24_321
*1186 FILLER_0_24_333
*1187 FILLER_0_24_41
*1188 FILLER_0_24_83
*1189 FILLER_0_24_92
*1190 FILLER_0_25_105
*1191 FILLER_0_25_11
*1192 FILLER_0_25_111
*1193 FILLER_0_25_113
*1194 FILLER_0_25_128
*1195 FILLER_0_25_139
*1196 FILLER_0_25_143
*1197 FILLER_0_25_164
*1198 FILLER_0_25_169
*1199 FILLER_0_25_173
*1200 FILLER_0_25_179
*1201 FILLER_0_25_191
*1202 FILLER_0_25_219
*1203 FILLER_0_25_223
*1204 FILLER_0_25_225
*1205 FILLER_0_25_229
*1206 FILLER_0_25_238
*1207 FILLER_0_25_264
*1208 FILLER_0_25_276
*1209 FILLER_0_25_3
*1210 FILLER_0_25_304
*1211 FILLER_0_25_316
*1212 FILLER_0_25_328
*1213 FILLER_0_25_334
*1214 FILLER_0_25_53
*1215 FILLER_0_25_57
*1216 FILLER_0_25_65
*1217 FILLER_0_25_78
*1218 FILLER_0_25_84
*1219 FILLER_0_26_114
*1220 FILLER_0_26_126
*1221 FILLER_0_26_136
*1222 FILLER_0_26_144
*1223 FILLER_0_26_156
*1224 FILLER_0_26_160
*1225 FILLER_0_26_169
*1226 FILLER_0_26_175
*1227 FILLER_0_26_197
*1228 FILLER_0_26_258
*1229 FILLER_0_26_280
*1230 FILLER_0_26_292
*1231 FILLER_0_26_296
*1232 FILLER_0_26_3
*1233 FILLER_0_26_300
*1234 FILLER_0_26_309
*1235 FILLER_0_26_321
*1236 FILLER_0_26_333
*1237 FILLER_0_26_69
*1238 FILLER_0_26_85
*1239 FILLER_0_27_122
*1240 FILLER_0_27_155
*1241 FILLER_0_27_164
*1242 FILLER_0_27_169
*1243 FILLER_0_27_175
*1244 FILLER_0_27_228
*1245 FILLER_0_27_251
*1246 FILLER_0_27_277
*1247 FILLER_0_27_289
*1248 FILLER_0_27_3
*1249 FILLER_0_27_321
*1250 FILLER_0_27_333
*1251 FILLER_0_27_48
*1252 FILLER_0_27_80
*1253 FILLER_0_27_86
*1254 FILLER_0_28_121
*1255 FILLER_0_28_136
*1256 FILLER_0_28_15
*1257 FILLER_0_28_157
*1258 FILLER_0_28_165
*1259 FILLER_0_28_186
*1260 FILLER_0_28_194
*1261 FILLER_0_28_208
*1262 FILLER_0_28_223
*1263 FILLER_0_28_235
*1264 FILLER_0_28_247
*1265 FILLER_0_28_251
*1266 FILLER_0_28_256
*1267 FILLER_0_28_27
*1268 FILLER_0_28_281
*1269 FILLER_0_28_29
*1270 FILLER_0_28_3
*1271 FILLER_0_28_326
*1272 FILLER_0_28_334
*1273 FILLER_0_28_35
*1274 FILLER_0_28_47
*1275 FILLER_0_28_59
*1276 FILLER_0_28_67
*1277 FILLER_0_28_72
*1278 FILLER_0_28_85
*1279 FILLER_0_28_91
*1280 FILLER_0_29_101
*1281 FILLER_0_29_119
*1282 FILLER_0_29_131
*1283 FILLER_0_29_141
*1284 FILLER_0_29_15
*1285 FILLER_0_29_153
*1286 FILLER_0_29_165
*1287 FILLER_0_29_169
*1288 FILLER_0_29_173
*1289 FILLER_0_29_182
*1290 FILLER_0_29_191
*1291 FILLER_0_29_206
*1292 FILLER_0_29_217
*1293 FILLER_0_29_223
*1294 FILLER_0_29_23
*1295 FILLER_0_29_233
*1296 FILLER_0_29_245
*1297 FILLER_0_29_253
*1298 FILLER_0_29_278
*1299 FILLER_0_29_286
*1300 FILLER_0_29_298
*1301 FILLER_0_29_3
*1302 FILLER_0_29_302
*1303 FILLER_0_29_32
*1304 FILLER_0_29_322
*1305 FILLER_0_29_334
*1306 FILLER_0_29_44
*1307 FILLER_0_29_57
*1308 FILLER_0_29_69
*1309 FILLER_0_29_85
*1310 FILLER_0_29_97
*1311 FILLER_0_2_109
*1312 FILLER_0_2_121
*1313 FILLER_0_2_133
*1314 FILLER_0_2_139
*1315 FILLER_0_2_141
*1316 FILLER_0_2_15
*1317 FILLER_0_2_153
*1318 FILLER_0_2_165
*1319 FILLER_0_2_177
*1320 FILLER_0_2_189
*1321 FILLER_0_2_195
*1322 FILLER_0_2_197
*1323 FILLER_0_2_209
*1324 FILLER_0_2_221
*1325 FILLER_0_2_233
*1326 FILLER_0_2_245
*1327 FILLER_0_2_251
*1328 FILLER_0_2_253
*1329 FILLER_0_2_265
*1330 FILLER_0_2_27
*1331 FILLER_0_2_277
*1332 FILLER_0_2_289
*1333 FILLER_0_2_29
*1334 FILLER_0_2_3
*1335 FILLER_0_2_301
*1336 FILLER_0_2_307
*1337 FILLER_0_2_309
*1338 FILLER_0_2_321
*1339 FILLER_0_2_333
*1340 FILLER_0_2_41
*1341 FILLER_0_2_53
*1342 FILLER_0_2_65
*1343 FILLER_0_2_77
*1344 FILLER_0_2_83
*1345 FILLER_0_2_85
*1346 FILLER_0_2_97
*1347 FILLER_0_30_119
*1348 FILLER_0_30_125
*1349 FILLER_0_30_141
*1350 FILLER_0_30_151
*1351 FILLER_0_30_163
*1352 FILLER_0_30_197
*1353 FILLER_0_30_201
*1354 FILLER_0_30_216
*1355 FILLER_0_30_241
*1356 FILLER_0_30_249
*1357 FILLER_0_30_278
*1358 FILLER_0_30_29
*1359 FILLER_0_30_290
*1360 FILLER_0_30_3
*1361 FILLER_0_30_302
*1362 FILLER_0_30_330
*1363 FILLER_0_30_334
*1364 FILLER_0_30_40
*1365 FILLER_0_30_46
*1366 FILLER_0_30_50
*1367 FILLER_0_30_71
*1368 FILLER_0_30_85
*1369 FILLER_0_31_128
*1370 FILLER_0_31_156
*1371 FILLER_0_31_161
*1372 FILLER_0_31_167
*1373 FILLER_0_31_241
*1374 FILLER_0_31_295
*1375 FILLER_0_31_3
*1376 FILLER_0_31_319
*1377 FILLER_0_31_331
*1378 FILLER_0_31_48
*1379 FILLER_0_31_7
*1380 FILLER_0_31_91
*1381 FILLER_0_32_123
*1382 FILLER_0_32_135
*1383 FILLER_0_32_139
*1384 FILLER_0_32_141
*1385 FILLER_0_32_153
*1386 FILLER_0_32_165
*1387 FILLER_0_32_193
*1388 FILLER_0_32_197
*1389 FILLER_0_32_201
*1390 FILLER_0_32_243
*1391 FILLER_0_32_251
*1392 FILLER_0_32_27
*1393 FILLER_0_32_273
*1394 FILLER_0_32_285
*1395 FILLER_0_32_3
*1396 FILLER_0_32_307
*1397 FILLER_0_32_309
*1398 FILLER_0_32_334
*1399 FILLER_0_32_60
*1400 FILLER_0_32_85
*1401 FILLER_0_32_9
*1402 FILLER_0_33_104
*1403 FILLER_0_33_122
*1404 FILLER_0_33_130
*1405 FILLER_0_33_135
*1406 FILLER_0_33_146
*1407 FILLER_0_33_158
*1408 FILLER_0_33_166
*1409 FILLER_0_33_169
*1410 FILLER_0_33_18
*1411 FILLER_0_33_180
*1412 FILLER_0_33_192
*1413 FILLER_0_33_204
*1414 FILLER_0_33_208
*1415 FILLER_0_33_22
*1416 FILLER_0_33_223
*1417 FILLER_0_33_241
*1418 FILLER_0_33_253
*1419 FILLER_0_33_279
*1420 FILLER_0_33_281
*1421 FILLER_0_33_287
*1422 FILLER_0_33_3
*1423 FILLER_0_33_309
*1424 FILLER_0_33_321
*1425 FILLER_0_33_333
*1426 FILLER_0_33_37
*1427 FILLER_0_33_45
*1428 FILLER_0_33_53
*1429 FILLER_0_33_57
*1430 FILLER_0_33_72
*1431 FILLER_0_33_84
*1432 FILLER_0_33_96
*1433 FILLER_0_34_105
*1434 FILLER_0_34_109
*1435 FILLER_0_34_11
*1436 FILLER_0_34_113
*1437 FILLER_0_34_120
*1438 FILLER_0_34_124
*1439 FILLER_0_34_149
*1440 FILLER_0_34_16
*1441 FILLER_0_34_161
*1442 FILLER_0_34_165
*1443 FILLER_0_34_185
*1444 FILLER_0_34_193
*1445 FILLER_0_34_197
*1446 FILLER_0_34_232
*1447 FILLER_0_34_244
*1448 FILLER_0_34_253
*1449 FILLER_0_34_284
*1450 FILLER_0_34_292
*1451 FILLER_0_34_297
*1452 FILLER_0_34_3
*1453 FILLER_0_34_307
*1454 FILLER_0_34_309
*1455 FILLER_0_34_321
*1456 FILLER_0_34_333
*1457 FILLER_0_34_38
*1458 FILLER_0_34_50
*1459 FILLER_0_34_58
*1460 FILLER_0_34_93
*1461 FILLER_0_35_105
*1462 FILLER_0_35_111
*1463 FILLER_0_35_160
*1464 FILLER_0_35_169
*1465 FILLER_0_35_195
*1466 FILLER_0_35_231
*1467 FILLER_0_35_239
*1468 FILLER_0_35_279
*1469 FILLER_0_35_289
*1470 FILLER_0_35_3
*1471 FILLER_0_35_320
*1472 FILLER_0_35_332
*1473 FILLER_0_35_49
*1474 FILLER_0_35_55
*1475 FILLER_0_35_57
*1476 FILLER_0_35_93
*1477 FILLER_0_36_132
*1478 FILLER_0_36_144
*1479 FILLER_0_36_151
*1480 FILLER_0_36_155
*1481 FILLER_0_36_194
*1482 FILLER_0_36_202
*1483 FILLER_0_36_24
*1484 FILLER_0_36_273
*1485 FILLER_0_36_286
*1486 FILLER_0_36_3
*1487 FILLER_0_36_322
*1488 FILLER_0_36_334
*1489 FILLER_0_36_54
*1490 FILLER_0_36_7
*1491 FILLER_0_36_82
*1492 FILLER_0_36_94
*1493 FILLER_0_36_98
*1494 FILLER_0_37_11
*1495 FILLER_0_37_110
*1496 FILLER_0_37_113
*1497 FILLER_0_37_122
*1498 FILLER_0_37_134
*1499 FILLER_0_37_145
*1500 FILLER_0_37_169
*1501 FILLER_0_37_17
*1502 FILLER_0_37_200
*1503 FILLER_0_37_223
*1504 FILLER_0_37_23
*1505 FILLER_0_37_239
*1506 FILLER_0_37_275
*1507 FILLER_0_37_279
*1508 FILLER_0_37_289
*1509 FILLER_0_37_3
*1510 FILLER_0_37_319
*1511 FILLER_0_37_331
*1512 FILLER_0_37_57
*1513 FILLER_0_37_63
*1514 FILLER_0_38_10
*1515 FILLER_0_38_101
*1516 FILLER_0_38_106
*1517 FILLER_0_38_111
*1518 FILLER_0_38_113
*1519 FILLER_0_38_125
*1520 FILLER_0_38_137
*1521 FILLER_0_38_14
*1522 FILLER_0_38_141
*1523 FILLER_0_38_153
*1524 FILLER_0_38_161
*1525 FILLER_0_38_18
*1526 FILLER_0_38_186
*1527 FILLER_0_38_194
*1528 FILLER_0_38_197
*1529 FILLER_0_38_209
*1530 FILLER_0_38_218
*1531 FILLER_0_38_225
*1532 FILLER_0_38_237
*1533 FILLER_0_38_249
*1534 FILLER_0_38_253
*1535 FILLER_0_38_265
*1536 FILLER_0_38_277
*1537 FILLER_0_38_281
*1538 FILLER_0_38_29
*1539 FILLER_0_38_293
*1540 FILLER_0_38_299
*1541 FILLER_0_38_303
*1542 FILLER_0_38_307
*1543 FILLER_0_38_321
*1544 FILLER_0_38_326
*1545 FILLER_0_38_334
*1546 FILLER_0_38_42
*1547 FILLER_0_38_46
*1548 FILLER_0_38_50
*1549 FILLER_0_38_54
*1550 FILLER_0_38_57
*1551 FILLER_0_38_6
*1552 FILLER_0_38_62
*1553 FILLER_0_38_71
*1554 FILLER_0_38_83
*1555 FILLER_0_38_93
*1556 FILLER_0_3_105
*1557 FILLER_0_3_111
*1558 FILLER_0_3_113
*1559 FILLER_0_3_125
*1560 FILLER_0_3_137
*1561 FILLER_0_3_149
*1562 FILLER_0_3_15