*SPEF "ieee 1481-1999"
*DESIGN "tt_um_ender_clock"
*DATE "14:09:56 Saturday May 11, 2024"
*VENDOR "The OpenROAD Project"
*PROGRAM "OpenROAD"
*VERSION "da0053d7b0014ab9c87ea148875ff6c2a0f9b658"
*DESIGN_FLOW "NAME_SCOPE LOCAL" "PIN_CAP NONE"
*DIVIDER /
*DELIMITER :
*BUS_DELIMITER []
*T_UNIT 1 NS
*C_UNIT 1 PF
*R_UNIT 1 OHM
*L_UNIT 1 HENRY

*NAME_MAP
*3 clk
*4 ena
*5 rst_n
*6 ui_in[0]
*7 ui_in[1]
*8 ui_in[2]
*9 ui_in[3]
*10 ui_in[4]
*11 ui_in[5]
*12 ui_in[6]
*13 ui_in[7]
*14 uio_in[0]
*15 uio_in[1]
*16 uio_in[2]
*17 uio_in[3]
*18 uio_in[4]
*19 uio_in[5]
*20 uio_in[6]
*21 uio_in[7]
*22 net16
*23 net17
*24 net18
*25 net19
*26 net20
*27 net21
*28 net22
*29 net23
*30 uio_out[0]
*31 uio_out[1]
*32 uio_out[2]
*33 uio_out[3]
*34 uio_out[4]
*35 uio_out[5]
*36 uio_out[6]
*37 uio_out[7]
*38 uo_out[0]
*39 uo_out[1]
*40 uo_out[2]
*41 uo_out[3]
*42 uo_out[4]
*43 uo_out[5]
*44 uo_out[6]
*45 uo_out[7]
*46 _0000_
*47 _0001_
*48 _0002_
*49 _0003_
*50 _0004_
*51 _0005_
*52 _0006_
*53 _0007_
*54 _0008_
*55 _0009_
*56 _0010_
*57 _0011_
*58 _0012_
*59 _0013_
*60 _0014_
*61 _0015_
*62 _0016_
*63 _0017_
*64 _0018_
*65 _0019_
*66 _0020_
*67 _0021_
*68 _0022_
*69 _0023_
*70 _0024_
*71 _0025_
*72 _0026_
*73 _0027_
*74 _0028_
*75 _0029_
*76 _0030_
*77 _0031_
*78 _0032_
*79 _0033_
*80 _0034_
*81 _0035_
*82 _0036_
*83 _0037_
*84 _0038_
*85 _0039_
*86 _0040_
*87 _0041_
*88 _0042_
*89 _0043_
*90 _0044_
*91 _0045_
*92 _0046_
*93 _0047_
*94 _0048_
*95 _0049_
*96 _0050_
*97 _0051_
*98 _0052_
*99 _0053_
*100 _0054_
*101 _0055_
*102 _0056_
*103 _0057_
*104 _0058_
*105 _0059_
*106 _0060_
*107 _0061_
*108 _0062_
*109 _0063_
*110 _0064_
*111 _0065_
*112 _0066_
*113 _0067_
*114 _0068_
*115 _0069_
*116 _0070_
*117 _0071_
*118 _0072_
*119 _0073_
*120 _0074_
*121 _0075_
*122 _0076_
*123 _0077_
*124 _0078_
*125 _0079_
*126 _0080_
*127 _0081_
*128 _0082_
*129 _0083_
*130 _0084_
*131 _0085_
*132 _0086_
*133 _0087_
*134 _0088_
*135 _0089_
*136 _0090_
*137 _0091_
*138 _0092_
*139 _0093_
*140 _0094_
*141 _0095_
*142 _0096_
*143 _0097_
*144 _0098_
*145 _0099_
*146 _0100_
*147 _0101_
*148 _0102_
*149 _0103_
*150 _0104_
*151 _0105_
*152 _0106_
*153 _0107_
*154 _0108_
*155 _0109_
*156 _0110_
*157 _0111_
*158 _0112_
*159 _0113_
*160 _0114_
*161 _0115_
*162 _0116_
*163 _0117_
*164 _0118_
*165 _0119_
*166 _0120_
*167 _0121_
*168 _0122_
*169 _0123_
*170 _0124_
*171 _0125_
*172 _0126_
*173 _0127_
*174 _0128_
*175 _0129_
*176 _0130_
*177 _0131_
*178 _0132_
*179 _0133_
*180 _0134_
*181 _0135_
*182 _0136_
*183 _0137_
*184 _0138_
*185 _0139_
*186 _0140_
*187 _0141_
*188 _0142_
*189 _0143_
*190 _0144_
*191 _0145_
*192 _0146_
*193 _0147_
*194 _0148_
*195 _0149_
*196 _0150_
*197 _0151_
*198 _0152_
*199 _0153_
*200 _0154_
*201 _0155_
*202 _0156_
*203 _0157_
*204 _0158_
*205 _0159_
*206 _0160_
*207 _0161_
*208 _0162_
*209 _0163_
*210 _0164_
*211 _0165_
*212 _0166_
*213 _0167_
*214 _0168_
*215 _0169_
*216 _0170_
*217 _0171_
*218 _0172_
*219 _0173_
*220 _0174_
*221 _0175_
*222 _0176_
*223 _0177_
*224 _0178_
*225 _0179_
*226 _0180_
*227 _0181_
*228 _0182_
*229 _0183_
*230 _0184_
*231 _0185_
*232 _0186_
*233 _0187_
*234 _0188_
*235 _0189_
*236 _0190_
*237 _0191_
*238 _0192_
*239 _0193_
*240 _0194_
*241 _0195_
*242 _0196_
*243 _0197_
*244 _0198_
*245 _0199_
*246 _0200_
*247 _0201_
*248 _0202_
*249 _0203_
*250 _0204_
*251 _0205_
*252 _0206_
*253 _0207_
*254 _0208_
*255 _0209_
*256 _0210_
*257 _0211_
*258 _0212_
*259 _0213_
*260 _0214_
*261 _0215_
*262 _0216_
*263 _0217_
*264 _0218_
*265 _0219_
*266 _0220_
*267 _0221_
*268 _0222_
*269 _0223_
*270 _0224_
*271 _0225_
*272 _0226_
*273 _0227_
*274 _0228_
*275 _0229_
*276 _0230_
*277 _0231_
*278 _0232_
*279 _0233_
*280 _0234_
*281 _0235_
*282 _0236_
*283 _0237_
*284 _0238_
*285 _0239_
*286 _0240_
*287 _0241_
*288 _0242_
*289 _0243_
*290 _0244_
*291 _0245_
*292 _0246_
*293 _0247_
*294 _0248_
*295 _0249_
*296 _0250_
*297 _0251_
*298 _0252_
*299 _0253_
*300 _0254_
*301 _0255_
*302 _0256_
*303 _0257_
*304 _0258_
*305 _0259_
*306 _0260_
*307 _0261_
*308 _0262_
*309 _0263_
*310 _0264_
*311 _0265_
*312 _0266_
*313 _0267_
*314 _0268_
*315 _0269_
*316 _0270_
*317 _0271_
*318 _0272_
*319 _0273_
*320 _0274_
*321 _0275_
*322 _0276_
*323 _0277_
*324 _0278_
*325 _0279_
*326 _0280_
*327 _0281_
*328 _0282_
*329 _0283_
*330 _0284_
*331 _0285_
*332 _0286_
*333 _0287_
*334 _0288_
*335 _0289_
*336 _0290_
*337 _0291_
*338 _0292_
*339 _0293_
*340 _0294_
*341 _0295_
*342 _0296_
*343 _0297_
*344 _0298_
*345 _0299_
*346 _0300_
*347 _0301_
*348 _0302_
*349 _0303_
*350 _0304_
*351 _0305_
*352 _0306_
*353 _0307_
*354 _0308_
*355 _0309_
*356 _0310_
*357 _0311_
*358 _0312_
*359 _0313_
*360 _0314_
*361 _0315_
*362 _0316_
*363 _0317_
*364 _0318_
*365 _0319_
*366 _0320_
*367 _0321_
*368 _0322_
*369 _0323_
*370 _0324_
*371 _0325_
*372 _0326_
*373 _0327_
*374 _0328_
*375 _0329_
*376 _0330_
*377 _0331_
*378 _0332_
*379 _0333_
*380 _0334_
*381 _0335_
*382 _0336_
*383 _0337_
*384 _0338_
*385 _0339_
*386 _0340_
*387 _0341_
*388 _0342_
*389 _0343_
*390 _0344_
*391 _0345_
*392 _0346_
*393 _0347_
*394 _0348_
*395 _0349_
*396 _0350_
*397 _0351_
*398 _0352_
*399 _0353_
*400 _0354_
*401 _0355_
*402 _0356_
*403 _0357_
*404 _0358_
*405 _0359_
*406 _0360_
*407 _0361_
*408 _0362_
*409 _0363_
*410 _0364_
*411 _0365_
*412 _0366_
*413 _0367_
*414 _0368_
*415 _0369_
*416 _0370_
*417 _0371_
*418 _0372_
*419 _0373_
*420 _0374_
*421 _0375_
*422 _0376_
*423 _0377_
*424 _0378_
*425 _0379_
*426 _0380_
*427 _0381_
*428 _0382_
*429 _0383_
*430 _0384_
*431 _0385_
*432 _0386_
*433 _0387_
*434 _0388_
*435 _0389_
*436 _0390_
*437 _0391_
*438 _0392_
*439 _0393_
*440 _0394_
*441 _0395_
*442 _0396_
*443 _0397_
*444 _0398_
*445 _0399_
*446 _0400_
*447 _0401_
*448 _0402_
*449 _0403_
*450 _0404_
*451 _0405_
*452 _0406_
*453 _0407_
*454 _0408_
*455 _0409_
*456 _0410_
*457 _0411_
*458 _0412_
*459 _0413_
*460 _0414_
*461 _0415_
*462 _0416_
*463 _0417_
*464 _0418_
*465 _0419_
*466 _0420_
*467 _0421_
*468 _0422_
*469 _0423_
*470 _0424_
*471 _0425_
*472 _0426_
*473 _0427_
*474 _0428_
*475 _0429_
*476 _0430_
*477 _0431_
*478 _0432_
*479 _0433_
*480 _0434_
*481 _0435_
*482 clknet_0_clk
*483 clknet_4_0_0_clk
*484 clknet_4_10_0_clk
*485 clknet_4_11_0_clk
*486 clknet_4_12_0_clk
*487 clknet_4_13_0_clk
*488 clknet_4_14_0_clk
*489 clknet_4_15_0_clk
*490 clknet_4_1_0_clk
*491 clknet_4_2_0_clk
*492 clknet_4_3_0_clk
*493 clknet_4_4_0_clk
*494 clknet_4_5_0_clk
*495 clknet_4_6_0_clk
*496 clknet_4_7_0_clk
*497 clknet_4_8_0_clk
*498 clknet_4_9_0_clk
*499 clock_counter\[0\]
*500 clock_counter\[10\]
*501 clock_counter\[11\]
*502 clock_counter\[12\]
*503 clock_counter\[13\]
*504 clock_counter\[1\]
*505 clock_counter\[2\]
*506 clock_counter\[6\]
*507 clock_counter\[7\]
*508 clock_counter\[8\]
*509 clock_counter\[9\]
*510 clock_run_flag
*511 day_of_month_0\.month\[0\]
*512 day_of_month_0\.month\[1\]
*513 day_of_month_0\.month\[2\]
*514 day_of_month_0\.month\[3\]
*515 key_add\.key_filter\[0\]
*516 key_add\.key_filter\[1\]
*517 key_add\.key_filter\[2\]
*518 key_add\.key_filter\[3\]
*519 key_add\.time_flag
*520 key_mode\.key_filter\[0\]
*521 key_mode\.key_filter\[1\]
*522 key_mode\.key_filter\[2\]
*523 key_mode\.key_filter\[3\]
*524 net1
*525 net10
*526 net100
*527 net101
*528 net102
*529 net103
*530 net104
*531 net105
*532 net106
*533 net107
*534 net108
*535 net109
*536 net11
*537 net110
*538 net111
*539 net112
*540 net113
*541 net114
*542 net115
*543 net116
*544 net117
*545 net118
*546 net119
*547 net12
*548 net120
*549 net121
*550 net122
*551 net123
*552 net124
*553 net125
*554 net126
*555 net127
*556 net128
*557 net129
*558 net13
*559 net130
*560 net131
*561 net132
*562 net133
*563 net134
*564 net135
*565 net136
*566 net14
*567 net15
*568 net2
*569 net24
*570 net25
*571 net26
*572 net27
*573 net28
*574 net29
*575 net3
*576 net30
*577 net31
*578 net32
*579 net33
*580 net34
*581 net35
*582 net36
*583 net37
*584 net38
*585 net39
*586 net4
*587 net40
*588 net41
*589 net42
*590 net43
*591 net44
*592 net45
*593 net46
*594 net47
*595 net48
*596 net49
*597 net5
*598 net50
*599 net51
*600 net52
*601 net53
*602 net54
*603 net55
*604 net56
*605 net57
*606 net58
*607 net59
*608 net6
*609 net60
*610 net61
*611 net62
*612 net63
*613 net64
*614 net65
*615 net66
*616 net67
*617 net68
*618 net69
*619 net7
*620 net70
*621 net71
*622 net72
*623 net73
*624 net74
*625 net75
*626 net76
*627 net77
*628 net78
*629 net79
*630 net8
*631 net80
*632 net81
*633 net82
*634 net83
*635 net84
*636 net85
*637 net86
*638 net87
*639 net88
*640 net89
*641 net9
*642 net90
*643 net91
*644 net92
*645 net93
*646 net94
*647 net95
*648 net96
*649 net97
*650 net98
*651 net99
*652 segment_D56
*653 segment_show1\.byte_status\[0\]
*654 segment_show1\.byte_status\[1\]
*655 segment_show1\.byte_status\[2\]
*656 time_control_10ms\.data_old\[0\]
*657 time_control_10ms\.data_old\[1\]
*658 time_control_10ms\.data_old\[2\]
*659 time_control_10ms\.data_old\[3\]
*660 time_control_10ms\.data_old\[4\]
*661 time_control_10ms\.data_old\[5\]
*662 time_control_10ms\.data_old\[6\]
*663 time_control_10ms\.data_old\[7\]
*664 time_control_10ms\.data_old\[8\]
*665 time_control_10ms\.data_out\[0\]
*666 time_control_10ms\.data_out\[1\]
*667 time_control_10ms\.data_out\[2\]
*668 time_control_10ms\.data_out\[3\]
*669 time_control_10ms\.data_out\[4\]
*670 time_control_10ms\.data_out\[5\]
*671 time_control_10ms\.data_out\[6\]
*672 time_control_10ms\.data_out\[7\]
*673 time_control_10ms\.data_out\[8\]
*674 time_control_day\.carry_flag
*675 time_control_day\.data_old\[0\]
*676 time_control_day\.data_old\[1\]
*677 time_control_day\.data_old\[2\]
*678 time_control_day\.data_old\[3\]
*679 time_control_day\.data_old\[4\]
*680 time_control_day\.data_out\[0\]
*681 time_control_day\.data_out\[1\]
*682 time_control_day\.data_out\[2\]
*683 time_control_day\.data_out\[3\]
*684 time_control_day\.data_out\[4\]
*685 time_control_hour\.carry_flag
*686 time_control_hour\.data_old\[0\]
*687 time_control_hour\.data_old\[1\]
*688 time_control_hour\.data_old\[2\]
*689 time_control_hour\.data_old\[3\]
*690 time_control_hour\.data_old\[4\]
*691 time_control_hour\.data_out\[0\]
*692 time_control_hour\.data_out\[1\]
*693 time_control_hour\.data_out\[2\]
*694 time_control_hour\.data_out\[3\]
*695 time_control_hour\.data_out\[4\]
*696 time_control_minute\.carry_flag
*697 time_control_minute\.data_old\[0\]
*698 time_control_minute\.data_old\[1\]
*699 time_control_minute\.data_old\[2\]
*700 time_control_minute\.data_old\[3\]
*701 time_control_minute\.data_old\[4\]
*702 time_control_minute\.data_old\[5\]
*703 time_control_minute\.data_out\[0\]
*704 time_control_minute\.data_out\[1\]
*705 time_control_minute\.data_out\[2\]
*706 time_control_minute\.data_out\[3\]
*707 time_control_minute\.data_out\[4\]
*708 time_control_minute\.data_out\[5\]
*709 time_control_second\.add_req
*710 time_control_second\.carry_flag
*711 time_control_second\.data_old\[0\]
*712 time_control_second\.data_old\[1\]
*713 time_control_second\.data_old\[2\]
*714 time_control_second\.data_old\[3\]
*715 time_control_second\.data_old\[4\]
*716 time_control_second\.data_old\[5\]
*717 time_control_second\.data_out\[0\]
*718 time_control_second\.data_out\[1\]
*719 time_control_second\.data_out\[2\]
*720 time_control_second\.data_out\[3\]
*721 time_control_second\.data_out\[4\]
*722 time_control_second\.data_out\[5\]
*723 time_control_second\.reset
*724 time_control_second_flags\.data_old\[0\]
*725 time_control_second_flags\.data_old\[10\]
*726 time_control_second_flags\.data_old\[11\]
*727 time_control_second_flags\.data_old\[12\]
*728 time_control_second_flags\.data_old\[13\]
*729 time_control_second_flags\.data_old\[14\]
*730 time_control_second_flags\.data_old\[15\]
*731 time_control_second_flags\.data_old\[1\]
*732 time_control_second_flags\.data_old\[2\]
*733 time_control_second_flags\.data_old\[3\]
*734 time_control_second_flags\.data_old\[4\]
*735 time_control_second_flags\.data_old\[5\]
*736 time_control_second_flags\.data_old\[6\]
*737 time_control_second_flags\.data_old\[7\]
*738 time_control_second_flags\.data_old\[8\]
*739 time_control_second_flags\.data_old\[9\]
*740 time_control_second_flags\.data_out\[0\]
*741 time_control_second_flags\.data_out\[10\]
*742 time_control_second_flags\.data_out\[11\]
*743 time_control_second_flags\.data_out\[12\]
*744 time_control_second_flags\.data_out\[13\]
*745 time_control_second_flags\.data_out\[14\]
*746 time_control_second_flags\.data_out\[15\]
*747 time_control_second_flags\.data_out\[1\]
*748 time_control_second_flags\.data_out\[2\]
*749 time_control_second_flags\.data_out\[3\]
*750 time_control_second_flags\.data_out\[4\]
*751 time_control_second_flags\.data_out\[5\]
*752 time_control_second_flags\.data_out\[6\]
*753 time_control_second_flags\.data_out\[7\]
*754 time_control_second_flags\.data_out\[8\]
*755 time_control_second_flags\.data_out\[9\]
*756 time_control_status\.data_out\[0\]
*757 time_control_status\.data_out\[1\]
*758 time_control_status\.data_out\[2\]
*759 FILLER_0_0_109
*760 FILLER_0_0_113
*761 FILLER_0_0_125
*762 FILLER_0_0_137
*763 FILLER_0_0_141
*764 FILLER_0_0_15
*765 FILLER_0_0_153
*766 FILLER_0_0_165
*767 FILLER_0_0_169
*768 FILLER_0_0_181
*769 FILLER_0_0_193
*770 FILLER_0_0_197
*771 FILLER_0_0_209
*772 FILLER_0_0_221
*773 FILLER_0_0_225
*774 FILLER_0_0_237
*775 FILLER_0_0_249
*776 FILLER_0_0_253
*777 FILLER_0_0_265
*778 FILLER_0_0_27
*779 FILLER_0_0_277
*780 FILLER_0_0_281
*781 FILLER_0_0_29
*782 FILLER_0_0_293
*783 FILLER_0_0_3
*784 FILLER_0_0_305
*785 FILLER_0_0_309
*786 FILLER_0_0_321
*787 FILLER_0_0_333
*788 FILLER_0_0_41
*789 FILLER_0_0_53
*790 FILLER_0_0_57
*791 FILLER_0_0_69
*792 FILLER_0_0_81
*793 FILLER_0_0_85
*794 FILLER_0_0_97
*795 FILLER_0_10_134
*796 FILLER_0_10_141
*797 FILLER_0_10_15
*798 FILLER_0_10_153
*799 FILLER_0_10_191
*800 FILLER_0_10_195
*801 FILLER_0_10_197
*802 FILLER_0_10_23
*803 FILLER_0_10_241
*804 FILLER_0_10_249
*805 FILLER_0_10_253
*806 FILLER_0_10_265
*807 FILLER_0_10_277
*808 FILLER_0_10_289
*809 FILLER_0_10_3
*810 FILLER_0_10_301
*811 FILLER_0_10_307
*812 FILLER_0_10_309
*813 FILLER_0_10_321
*814 FILLER_0_10_333
*815 FILLER_0_10_46
*816 FILLER_0_10_78
*817 FILLER_0_10_85
*818 FILLER_0_10_97
*819 FILLER_0_11_140
*820 FILLER_0_11_158
*821 FILLER_0_11_162
*822 FILLER_0_11_166
*823 FILLER_0_11_178
*824 FILLER_0_11_207
*825 FILLER_0_11_211
*826 FILLER_0_11_222
*827 FILLER_0_11_233
*828 FILLER_0_11_245
*829 FILLER_0_11_257
*830 FILLER_0_11_269
*831 FILLER_0_11_277
*832 FILLER_0_11_281
*833 FILLER_0_11_293
*834 FILLER_0_11_3
*835 FILLER_0_11_305
*836 FILLER_0_11_317
*837 FILLER_0_11_329
*838 FILLER_0_11_47
*839 FILLER_0_11_57
*840 FILLER_0_11_84
*841 FILLER_0_12_11
*842 FILLER_0_12_113
*843 FILLER_0_12_152
*844 FILLER_0_12_164
*845 FILLER_0_12_170
*846 FILLER_0_12_195
*847 FILLER_0_12_197
*848 FILLER_0_12_234
*849 FILLER_0_12_246
*850 FILLER_0_12_253
*851 FILLER_0_12_265
*852 FILLER_0_12_277
*853 FILLER_0_12_289
*854 FILLER_0_12_3
*855 FILLER_0_12_301
*856 FILLER_0_12_307
*857 FILLER_0_12_309
*858 FILLER_0_12_321
*859 FILLER_0_12_333
*860 FILLER_0_12_54
*861 FILLER_0_12_80
*862 FILLER_0_12_85
*863 FILLER_0_12_91
*864 FILLER_0_13_106
*865 FILLER_0_13_121
*866 FILLER_0_13_162
*867 FILLER_0_13_169
*868 FILLER_0_13_179
*869 FILLER_0_13_203
*870 FILLER_0_13_209
*871 FILLER_0_13_223
*872 FILLER_0_13_225
*873 FILLER_0_13_237
*874 FILLER_0_13_249
*875 FILLER_0_13_261
*876 FILLER_0_13_273
*877 FILLER_0_13_279
*878 FILLER_0_13_281
*879 FILLER_0_13_293
*880 FILLER_0_13_3
*881 FILLER_0_13_305
*882 FILLER_0_13_317
*883 FILLER_0_13_32
*884 FILLER_0_13_329
*885 FILLER_0_13_44
*886 FILLER_0_13_57
*887 FILLER_0_13_61
*888 FILLER_0_13_7
*889 FILLER_0_13_87
*890 FILLER_0_13_99
*891 FILLER_0_14_107
*892 FILLER_0_14_119
*893 FILLER_0_14_135
*894 FILLER_0_14_139
*895 FILLER_0_14_141
*896 FILLER_0_14_18
*897 FILLER_0_14_183
*898 FILLER_0_14_192
*899 FILLER_0_14_213
*900 FILLER_0_14_249
*901 FILLER_0_14_253
*902 FILLER_0_14_265
*903 FILLER_0_14_277
*904 FILLER_0_14_289
*905 FILLER_0_14_3
*906 FILLER_0_14_301
*907 FILLER_0_14_307
*908 FILLER_0_14_309
*909 FILLER_0_14_321
*910 FILLER_0_14_333
*911 FILLER_0_14_52
*912 FILLER_0_14_58
*913 FILLER_0_15_106
*914 FILLER_0_15_113
*915 FILLER_0_15_121
*916 FILLER_0_15_125
*917 FILLER_0_15_15
*918 FILLER_0_15_169
*919 FILLER_0_15_174
*920 FILLER_0_15_186
*921 FILLER_0_15_211
*922 FILLER_0_15_241
*923 FILLER_0_15_268
*924 FILLER_0_15_281
*925 FILLER_0_15_293
*926 FILLER_0_15_3
*927 FILLER_0_15_308
*928 FILLER_0_15_32
*929 FILLER_0_15_324
*930 FILLER_0_15_332
*931 FILLER_0_15_51
*932 FILLER_0_15_55
*933 FILLER_0_15_57
*934 FILLER_0_15_61
*935 FILLER_0_16_111
*936 FILLER_0_16_15
*937 FILLER_0_16_173
*938 FILLER_0_16_194
*939 FILLER_0_16_209
*940 FILLER_0_16_221
*941 FILLER_0_16_229
*942 FILLER_0_16_24
*943 FILLER_0_16_241
*944 FILLER_0_16_278
*945 FILLER_0_16_29
*946 FILLER_0_16_3
*947 FILLER_0_16_305
*948 FILLER_0_16_329
*949 FILLER_0_16_43
*950 FILLER_0_16_55
*951 FILLER_0_16_72
*952 FILLER_0_17_103
*953 FILLER_0_17_111
*954 FILLER_0_17_15
*955 FILLER_0_17_185
*956 FILLER_0_17_213
*957 FILLER_0_17_221
*958 FILLER_0_17_228
*959 FILLER_0_17_240
*960 FILLER_0_17_273
*961 FILLER_0_17_279
*962 FILLER_0_17_289
*963 FILLER_0_17_3
*964 FILLER_0_17_300
*965 FILLER_0_17_322
*966 FILLER_0_17_334
*967 FILLER_0_17_54
*968 FILLER_0_17_83
*969 FILLER_0_18_109
*970 FILLER_0_18_133
*971 FILLER_0_18_15
*972 FILLER_0_18_161
*973 FILLER_0_18_167
*974 FILLER_0_18_187
*975 FILLER_0_18_193
*976 FILLER_0_18_197
*977 FILLER_0_18_201
*978 FILLER_0_18_210
*979 FILLER_0_18_248
*980 FILLER_0_18_27
*981 FILLER_0_18_286
*982 FILLER_0_18_29
*983 FILLER_0_18_3
*984 FILLER_0_18_306
*985 FILLER_0_18_317
*986 FILLER_0_18_329
*987 FILLER_0_18_41
*988 FILLER_0_18_49
*989 FILLER_0_18_72
*990 FILLER_0_18_85
*991 FILLER_0_18_97
*992 FILLER_0_19_107
*993 FILLER_0_19_111
*994 FILLER_0_19_113
*995 FILLER_0_19_133
*996 FILLER_0_19_146
*997 FILLER_0_19_15
*998 FILLER_0_19_153
*999 FILLER_0_19_165
*1000 FILLER_0_19_169
*1001 FILLER_0_19_173
*1002 FILLER_0_19_182
*1003 FILLER_0_19_194
*1004 FILLER_0_19_202
*1005 FILLER_0_19_219
*1006 FILLER_0_19_223
*1007 FILLER_0_19_257
*1008 FILLER_0_19_268
*1009 FILLER_0_19_27
*1010 FILLER_0_19_276
*1011 FILLER_0_19_294
*1012 FILLER_0_19_3
*1013 FILLER_0_19_302
*1014 FILLER_0_19_333
*1015 FILLER_0_19_39
*1016 FILLER_0_19_51
*1017 FILLER_0_19_55
*1018 FILLER_0_19_57
*1019 FILLER_0_19_69
*1020 FILLER_0_19_81
*1021 FILLER_0_19_95
*1022 FILLER_0_1_105
*1023 FILLER_0_1_111
*1024 FILLER_0_1_113
*1025 FILLER_0_1_125
*1026 FILLER_0_1_137
*1027 FILLER_0_1_149
*1028 FILLER_0_1_15
*1029 FILLER_0_1_161
*1030 FILLER_0_1_167
*1031 FILLER_0_1_169
*1032 FILLER_0_1_181
*1033 FILLER_0_1_193
*1034 FILLER_0_1_205
*1035 FILLER_0_1_217
*1036 FILLER_0_1_223
*1037 FILLER_0_1_225
*1038 FILLER_0_1_237
*1039 FILLER_0_1_249
*1040 FILLER_0_1_261
*1041 FILLER_0_1_27
*1042 FILLER_0_1_273
*1043 FILLER_0_1_279
*1044 FILLER_0_1_281
*1045 FILLER_0_1_293
*1046 FILLER_0_1_3
*1047 FILLER_0_1_305
*1048 FILLER_0_1_317
*1049 FILLER_0_1_329
*1050 FILLER_0_1_39
*1051 FILLER_0_1_51
*1052 FILLER_0_1_55
*1053 FILLER_0_1_57
*1054 FILLER_0_1_69
*1055 FILLER_0_1_81
*1056 FILLER_0_1_93
*1057 FILLER_0_20_116
*1058 FILLER_0_20_128
*1059 FILLER_0_20_15
*1060 FILLER_0_20_165
*1061 FILLER_0_20_177
*1062 FILLER_0_20_189
*1063 FILLER_0_20_195
*1064 FILLER_0_20_197
*1065 FILLER_0_20_250
*1066 FILLER_0_20_269
*1067 FILLER_0_20_27
*1068 FILLER_0_20_3
*1069 FILLER_0_20_303
*1070 FILLER_0_20_307
*1071 FILLER_0_20_314
*1072 FILLER_0_20_318
*1073 FILLER_0_20_327
*1074 FILLER_0_20_37
*1075 FILLER_0_20_49
*1076 FILLER_0_20_57
*1077 FILLER_0_20_83
*1078 FILLER_0_20_85
*1079 FILLER_0_21_124
*1080 FILLER_0_21_137
*1081 FILLER_0_21_15
*1082 FILLER_0_21_166
*1083 FILLER_0_21_169
*1084 FILLER_0_21_180
*1085 FILLER_0_21_197
*1086 FILLER_0_21_205
*1087 FILLER_0_21_210
*1088 FILLER_0_21_221
*1089 FILLER_0_21_233
*1090 FILLER_0_21_237
*1091 FILLER_0_21_270
*1092 FILLER_0_21_3
*1093 FILLER_0_21_304
*1094 FILLER_0_21_333
*1095 FILLER_0_21_43
*1096 FILLER_0_21_51
*1097 FILLER_0_21_80
*1098 FILLER_0_22_121
*1099 FILLER_0_22_164
*1100 FILLER_0_22_193
*1101 FILLER_0_22_200
*1102 FILLER_0_22_212
*1103 FILLER_0_22_233
*1104 FILLER_0_22_239
*1105 FILLER_0_22_26
*1106 FILLER_0_22_285
*1107 FILLER_0_22_3
*1108 FILLER_0_22_309
*1109 FILLER_0_22_318
*1110 FILLER_0_22_35
*1111 FILLER_0_22_53
*1112 FILLER_0_22_82
*1113 FILLER_0_23_107
*1114 FILLER_0_23_111
*1115 FILLER_0_23_113
*1116 FILLER_0_23_162
*1117 FILLER_0_23_169
*1118 FILLER_0_23_216
*1119 FILLER_0_23_222
*1120 FILLER_0_23_249
*1121 FILLER_0_23_268
*1122 FILLER_0_23_279
*1123 FILLER_0_23_281
*1124 FILLER_0_23_3
*1125 FILLER_0_23_318
*1126 FILLER_0_23_330
*1127 FILLER_0_23_334
*1128 FILLER_0_23_46
*1129 FILLER_0_23_50
*1130 FILLER_0_23_57
*1131 FILLER_0_23_87
*1132 FILLER_0_24_122
*1133 FILLER_0_24_15
*1134 FILLER_0_24_162
*1135 FILLER_0_24_212
*1136 FILLER_0_24_24
*1137 FILLER_0_24_248
*1138 FILLER_0_24_262
*1139 FILLER_0_24_3
*1140 FILLER_0_24_307
*1141 FILLER_0_24_317
*1142 FILLER_0_24_329
*1143 FILLER_0_24_38
*1144 FILLER_0_24_55
*1145 FILLER_0_24_81
*1146 FILLER_0_24_85
*1147 FILLER_0_25_120
*1148 FILLER_0_25_132
*1149 FILLER_0_25_138
*1150 FILLER_0_25_142
*1151 FILLER_0_25_160
*1152 FILLER_0_25_169
*1153 FILLER_0_25_180
*1154 FILLER_0_25_206
*1155 FILLER_0_25_218
*1156 FILLER_0_25_251
*1157 FILLER_0_25_26
*1158 FILLER_0_25_263
*1159 FILLER_0_25_275
*1160 FILLER_0_25_279
*1161 FILLER_0_25_281
*1162 FILLER_0_25_285
*1163 FILLER_0_25_297
*1164 FILLER_0_25_3
*1165 FILLER_0_25_309
*1166 FILLER_0_25_321
*1167 FILLER_0_25_333
*1168 FILLER_0_25_41
*1169 FILLER_0_25_53
*1170 FILLER_0_25_88
*1171 FILLER_0_25_9
*1172 FILLER_0_25_99
*1173 FILLER_0_26_103
*1174 FILLER_0_26_111
*1175 FILLER_0_26_119
*1176 FILLER_0_26_162
*1177 FILLER_0_26_170
*1178 FILLER_0_26_190
*1179 FILLER_0_26_194
*1180 FILLER_0_26_206
*1181 FILLER_0_26_218
*1182 FILLER_0_26_239
*1183 FILLER_0_26_25
*1184 FILLER_0_26_251
*1185 FILLER_0_26_285
*1186 FILLER_0_26_297
*1187 FILLER_0_26_3
*1188 FILLER_0_26_305
*1189 FILLER_0_26_309
*1190 FILLER_0_26_321
*1191 FILLER_0_26_333
*1192 FILLER_0_26_68
*1193 FILLER_0_26_80
*1194 FILLER_0_26_85
*1195 FILLER_0_26_97
*1196 FILLER_0_27_101
*1197 FILLER_0_27_109
*1198 FILLER_0_27_113
*1199 FILLER_0_27_125
*1200 FILLER_0_27_137
*1201 FILLER_0_27_160
*1202 FILLER_0_27_190
*1203 FILLER_0_27_204
*1204 FILLER_0_27_212
*1205 FILLER_0_27_225
*1206 FILLER_0_27_237
*1207 FILLER_0_27_245
*1208 FILLER_0_27_278
*1209 FILLER_0_27_293
*1210 FILLER_0_27_3
*1211 FILLER_0_27_305
*1212 FILLER_0_27_309
*1213 FILLER_0_27_314
*1214 FILLER_0_27_54
*1215 FILLER_0_27_65
*1216 FILLER_0_27_77
*1217 FILLER_0_27_81
*1218 FILLER_0_27_89
*1219 FILLER_0_28_129
*1220 FILLER_0_28_137
*1221 FILLER_0_28_148
*1222 FILLER_0_28_15
*1223 FILLER_0_28_157
*1224 FILLER_0_28_169
*1225 FILLER_0_28_181
*1226 FILLER_0_28_195
*1227 FILLER_0_28_197
*1228 FILLER_0_28_238
*1229 FILLER_0_28_250
*1230 FILLER_0_28_253
*1231 FILLER_0_28_258
*1232 FILLER_0_28_27
*1233 FILLER_0_28_292
*1234 FILLER_0_28_3
*1235 FILLER_0_28_304
*1236 FILLER_0_28_329
*1237 FILLER_0_28_39
*1238 FILLER_0_28_62
*1239 FILLER_0_28_70
*1240 FILLER_0_28_98
*1241 FILLER_0_29_104
*1242 FILLER_0_29_108
*1243 FILLER_0_29_11
*1244 FILLER_0_29_113
*1245 FILLER_0_29_126
*1246 FILLER_0_29_130
*1247 FILLER_0_29_135
*1248 FILLER_0_29_142
*1249 FILLER_0_29_149
*1250 FILLER_0_29_161
*1251 FILLER_0_29_167
*1252 FILLER_0_29_169
*1253 FILLER_0_29_17
*1254 FILLER_0_29_181
*1255 FILLER_0_29_248
*1256 FILLER_0_29_256
*1257 FILLER_0_29_261
*1258 FILLER_0_29_279
*1259 FILLER_0_29_299
*1260 FILLER_0_29_3
*1261 FILLER_0_29_334
*1262 FILLER_0_29_47
*1263 FILLER_0_29_55
*1264 FILLER_0_29_65
*1265 FILLER_0_2_109
*1266 FILLER_0_2_121
*1267 FILLER_0_2_133
*1268 FILLER_0_2_139
*1269 FILLER_0_2_141
*1270 FILLER_0_2_15
*1271 FILLER_0_2_153
*1272 FILLER_0_2_165
*1273 FILLER_0_2_177
*1274 FILLER_0_2_189
*1275 FILLER_0_2_195
*1276 FILLER_0_2_197
*1277 FILLER_0_2_209
*1278 FILLER_0_2_221
*1279 FILLER_0_2_233
*1280 FILLER_0_2_245
*1281 FILLER_0_2_251
*1282 FILLER_0_2_253
*1283 FILLER_0_2_265
*1284 FILLER_0_2_27
*1285 FILLER_0_2_277
*1286 FILLER_0_2_289
*1287 FILLER_0_2_29
*1288 FILLER_0_2_3
*1289 FILLER_0_2_301
*1290 FILLER_0_2_307
*1291 FILLER_0_2_309
*1292 FILLER_0_2_321
*1293 FILLER_0_2_333
*1294 FILLER_0_2_41
*1295 FILLER_0_2_53
*1296 FILLER_0_2_65
*1297 FILLER_0_2_77
*1298 FILLER_0_2_83
*1299 FILLER_0_2_85
*1300 FILLER_0_2_97
*1301 FILLER_0_30_101
*1302 FILLER_0_30_105
*1303 FILLER_0_30_146
*1304 FILLER_0_30_159
*1305 FILLER_0_30_166
*1306 FILLER_0_30_183
*1307 FILLER_0_30_195
*1308 FILLER_0_30_197
*1309 FILLER_0_30_228
*1310 FILLER_0_30_236
*1311 FILLER_0_30_246
*1312 FILLER_0_30_25
*1313 FILLER_0_30_253
*1314 FILLER_0_30_265
*1315 FILLER_0_30_289
*1316 FILLER_0_30_3
*1317 FILLER_0_30_301
*1318 FILLER_0_30_329
*1319 FILLER_0_30_52
*1320 FILLER_0_30_64
*1321 FILLER_0_31_108
*1322 FILLER_0_31_113
*1323 FILLER_0_31_128
*1324 FILLER_0_31_143
*1325 FILLER_0_31_169
*1326 FILLER_0_31_183
*1327 FILLER_0_31_219
*1328 FILLER_0_31_223
*1329 FILLER_0_31_225
*1330 FILLER_0_31_256
*1331 FILLER_0_31_278
*1332 FILLER_0_31_281
*1333 FILLER_0_31_293
*1334 FILLER_0_31_3
*1335 FILLER_0_31_305
*1336 FILLER_0_31_333
*1337 FILLER_0_31_54
*1338 FILLER_0_31_57
*1339 FILLER_0_31_69
*1340 FILLER_0_31_96
*1341 FILLER_0_32_109
*1342 FILLER_0_32_126
*1343 FILLER_0_32_138
*1344 FILLER_0_32_141
*1345 FILLER_0_32_154
*1346 FILLER_0_32_165
*1347 FILLER_0_32_197
*1348 FILLER_0_32_209
*1349 FILLER_0_32_221
*1350 FILLER_0_32_243
*1351 FILLER_0_32_248
*1352 FILLER_0_32_25
*1353 FILLER_0_32_253
*1354 FILLER_0_32_287
*1355 FILLER_0_32_29
*1356 FILLER_0_32_299
*1357 FILLER_0_32_3
*1358 FILLER_0_32_307
*1359 FILLER_0_32_329
*1360 FILLER_0_32_46
*1361 FILLER_0_32_58
*1362 FILLER_0_32_66
*1363 FILLER_0_32_73
*1364 FILLER_0_32_81
*1365 FILLER_0_32_85
*1366 FILLER_0_32_97
*1367 FILLER_0_33_101
*1368 FILLER_0_33_113
*1369 FILLER_0_33_128
*1370 FILLER_0_33_140
*1371 FILLER_0_33_15
*1372 FILLER_0_33_152
*1373 FILLER_0_33_160
*1374 FILLER_0_33_166
*1375 FILLER_0_33_189
*1376 FILLER_0_33_201
*1377 FILLER_0_33_207
*1378 FILLER_0_33_211
*1379 FILLER_0_33_225
*1380 FILLER_0_33_235
*1381 FILLER_0_33_247
*1382 FILLER_0_33_259
*1383 FILLER_0_33_26
*1384 FILLER_0_33_281
*1385 FILLER_0_33_293
*1386 FILLER_0_33_3
*1387 FILLER_0_33_51
*1388 FILLER_0_33_55
*1389 FILLER_0_33_57
*1390 FILLER_0_33_80
*1391 FILLER_0_33_95
*1392 FILLER_0_34_108
*1393 FILLER_0_34_125
*1394 FILLER_0_34_133
*1395 FILLER_0_34_139
*1396 FILLER_0_34_144
*1397 FILLER_0_34_15
*1398 FILLER_0_34_167
*1399 FILLER_0_34_179
*1400 FILLER_0_34_191
*1401 FILLER_0_34_195
*1402 FILLER_0_34_200
*1403 FILLER_0_34_204
*1404 FILLER_0_34_226
*1405 FILLER_0_34_244
*1406 FILLER_0_34_253
*1407 FILLER_0_34_261
*1408 FILLER_0_34_27
*1409 FILLER_0_34_281
*1410 FILLER_0_34_3
*1411 FILLER_0_34_305
*1412 FILLER_0_34_309
*1413 FILLER_0_34_324
*1414 FILLER_0_34_42
*1415 FILLER_0_34_54
*1416 FILLER_0_34_96
*1417 FILLER_0_35_106
*1418 FILLER_0_35_113
*1419 FILLER_0_35_140
*1420 FILLER_0_35_146
*1421 FILLER_0_35_164
*1422 FILLER_0_35_174
*1423 FILLER_0_35_182
*1424 FILLER_0_35_220
*1425 FILLER_0_35_277
*1426 FILLER_0_35_281
*1427 FILLER_0_35_293
*1428 FILLER_0_35_3
*1429 FILLER_0_35_301
*1430 FILLER_0_35_310
*1431 FILLER_0_35_318
*1432 FILLER_0_35_32
*1433 FILLER_0_35_333
*1434 FILLER_0_35_57
*1435 FILLER_0_35_65
*1436 FILLER_0_35_93
*1437 FILLER_0_36_109
*1438 FILLER_0_36_11
*1439 FILLER_0_36_141
*1440 FILLER_0_36_16
*1441 FILLER_0_36_186
*1442 FILLER_0_36_197
*1443 FILLER_0_36_250
*1444 FILLER_0_36_291
*1445 FILLER_0_36_3
*1446 FILLER_0_36_303
*1447 FILLER_0_36_307
*1448 FILLER_0_36_309
*1449 FILLER_0_36_321
*1450 FILLER_0_36_327
*1451 FILLER_0_36_62
*1452 FILLER_0_36_74
*1453 FILLER_0_37_100
*1454 FILLER_0_37_119
*1455 FILLER_0_37_141
*1456 FILLER_0_37_186
*1457 FILLER_0_37_212
*1458 FILLER_0_37_255
*1459 FILLER_0_37_267
*1460 FILLER_0_37_272
*1461 FILLER_0_37_281
*1462 FILLER_0_37_293
*1463 FILLER_0_37_3
*1464 FILLER_0_37_305
*1465 FILLER_0_37_31
*1466 FILLER_0_37_317
*1467 FILLER_0_37_329
*1468 FILLER_0_37_52
*1469 FILLER_0_37_63
*1470 FILLER_0_37_7
*1471 FILLER_0_37_75
*1472 FILLER_0_37_83
*1473 FILLER_0_38_10
*1474 FILLER_0_38_109
*1475 FILLER_0_38_113
*1476 FILLER_0_38_121
*1477 FILLER_0_38_133
*1478 FILLER_0_38_139
*1479 FILLER_0_38_14
*1480 FILLER_0_38_141
*1481 FILLER_0_38_167
*1482 FILLER_0_38_169
*1483 FILLER_0_38_175
*1484 FILLER_0_38_18
*1485 FILLER_0_38_187
*1486 FILLER_0_38_195
*1487 FILLER_0_38_197
*1488 FILLER_0_38_209
*1489 FILLER_0_38_22
*1490 FILLER_0_38_221
*1491 FILLER_0_38_225
*1492 FILLER_0_38_232
*1493 FILLER_0_38_246
*1494 FILLER_0_38_253
*1495 FILLER_0_38_265
*1496 FILLER_0_38_277
*1497 FILLER_0_38_281
*1498 FILLER_0_38_293
*1499 FILLER_0_38_305
*1500 FILLER_0_38_313
*1501 FILLER_0_38_318
*1502 FILLER_0_38_32
*1503 FILLER_0_38_322
*1504 FILLER_0_38_326
*1505 FILLER_0_38_334
*1506 FILLER_0_38_38
*1507 FILLER_0_38_42
*1508 FILLER_0_38_46
*1509 FILLER_0_38_50
*1510 FILLER_0_38_54
*1511 FILLER_0_38_57
*1512 FILLER_0_38_6
*1513 FILLER_0_38_62
*1514 FILLER_0_38_74
*1515 FILLER_0_38_82
*1516 FILLER_0_38_85
*1517 FILLER_0_38_97
*1518 FILLER_0_3_105
*1519 FILLER_0_3_111
*1520 FILLER_0_3_113
*1521 FILLER_0_3_125
*1522 FILLER_0_3_137
*1523 FILLER_0_3_149
*1524 FILLER_0_3_15
*1525 FILLER_0_3_161
*1526 FILLER_0_3_167
*1527 FILLER_0_3_169
*1528 FILLER_0_3_181
*1529 FILLER_0_3_193
*1530 FILLER_0_3_205
*1531 FILLER_0_3_217
*1532 FILLER_0_3_223
*1533 FILLER_0_3_225
*1534 FILLER_0_3_237
*1535 FILLER_0_3_249
*1536 FILLER_0_3_261
*1537 FILLER_0_3_27
*1538 FILLER_0_3_273
*1539 FILLER_0_3_279
*1540 FILLER_0_3_281
*1541 FILLER_0_3_293
*1542 FILLER_0_3_3
*1543 FILLER_0_3_305
*1544 FILLER_0_3_317
*1545 FILLER_0_3_329
*1546 FILLER_0_3_39
*1547 FILLER_0_3_51
*1548 FILLER_0_3_55
*1549 FILLER_0_3_57
*1550 FILLER_0_3_69
*1551 FILLER_0_3_81
*1552 FILLER_0_3_93
*1553 FILLER_0_4_109
*1554 FILLER_0_4_121
*1555 FILLER_0_4_133
*1556 FILLER_0_4_139
*1557 FILLER_0_4_141
*1558 FILLER_0_4_15
*1559 FILLER_0_4_153
*1560 FILLER_0_4_165
*1561 FILLER_0_4_177
*1562 FILLER_0_4_189
*1563 FILLER_0_4_195
*1564 FILLER_0_4_197
*1565 FILLER_0_4_209