*SPEF "ieee 1481-1999"
*DESIGN "tt_um_wokwi_397268065185737729"
*DATE "15:24:21 Saturday May 11, 2024"
*VENDOR "The OpenROAD Project"
*PROGRAM "OpenROAD"
*VERSION "da0053d7b0014ab9c87ea148875ff6c2a0f9b658"
*DESIGN_FLOW "NAME_SCOPE LOCAL" "PIN_CAP NONE"
*DIVIDER /
*DELIMITER :
*BUS_DELIMITER []
*T_UNIT 1 NS
*C_UNIT 1 PF
*R_UNIT 1 OHM
*L_UNIT 1 HENRY

*NAME_MAP
*3 clk
*4 ena
*5 rst_n
*6 ui_in[0]
*7 ui_in[1]
*8 ui_in[2]
*9 ui_in[3]
*10 ui_in[4]
*11 ui_in[5]
*12 ui_in[6]
*13 ui_in[7]
*14 uio_in[0]
*15 uio_in[1]
*16 uio_in[2]
*17 uio_in[3]
*18 uio_in[4]
*19 uio_in[5]
*20 uio_in[6]
*21 uio_in[7]
*22 net3
*23 net4
*24 net5
*25 net6
*26 net7
*27 net8
*28 net9
*29 net10
*30 net11
*31 net12
*32 net13
*33 net14
*34 net15
*35 net16
*36 net17
*37 net18
*38 uo_out[0]
*39 uo_out[1]
*40 uo_out[2]
*41 uo_out[3]
*42 uo_out[4]
*43 uo_out[5]
*44 net19
*45 uo_out[7]
*46 _000_
*47 _001_
*48 _002_
*49 _003_
*50 _004_
*51 _005_
*52 _006_
*53 _007_
*54 _008_
*55 _009_
*56 _010_
*57 _011_
*58 _012_
*59 _013_
*60 _014_
*61 _015_
*62 _016_
*63 _017_
*64 _018_
*65 _019_
*66 _020_
*67 _021_
*68 _022_
*69 _023_
*70 _024_
*71 _025_
*72 _026_
*73 _027_
*74 _028_
*75 _029_
*76 _030_
*77 _031_
*78 _032_
*79 _033_
*80 _034_
*81 _035_
*82 _036_
*83 _037_
*84 _038_
*85 _039_
*86 _040_
*87 and1\.out
*88 and10\.out
*89 and11\.b
*90 and11\.out
*91 and12\.out
*92 and13\.a
*93 and14\.a
*94 and14\.b
*95 and15\.a
*96 and15\.b
*97 and16\.a
*98 and16\.b
*99 and18\.out
*100 and19\.out
*101 and2\.out
*102 and20\.out
*103 and21\.out
*104 and22\.out
*105 and23\.out
*106 and24\.out
*107 and4\.b
*108 and4\.out
*109 and5\.b
*110 and5\.out
*111 and6\.out
*112 and7\.b
*113 and7\.out
*114 and8\.out
*115 and9\.b
*116 and9\.out
*117 clknet_0_clk
*118 clknet_1_0__leaf_clk
*119 clknet_1_1__leaf_clk
*120 flop10\.d
*121 flop13\.q
*122 flop14\.q
*123 flop6\.q
*124 net1
*125 net2
*126 net20
*127 net21
*128 net22
*129 net23
*130 FILLER_0_0_109
*131 FILLER_0_0_113
*132 FILLER_0_0_125
*133 FILLER_0_0_137
*134 FILLER_0_0_141
*135 FILLER_0_0_15
*136 FILLER_0_0_153
*137 FILLER_0_0_165
*138 FILLER_0_0_169
*139 FILLER_0_0_181
*140 FILLER_0_0_193
*141 FILLER_0_0_197
*142 FILLER_0_0_209
*143 FILLER_0_0_221
*144 FILLER_0_0_225
*145 FILLER_0_0_237
*146 FILLER_0_0_249
*147 FILLER_0_0_253
*148 FILLER_0_0_265
*149 FILLER_0_0_27
*150 FILLER_0_0_277
*151 FILLER_0_0_281
*152 FILLER_0_0_29
*153 FILLER_0_0_293
*154 FILLER_0_0_3
*155 FILLER_0_0_305
*156 FILLER_0_0_309
*157 FILLER_0_0_321
*158 FILLER_0_0_333
*159 FILLER_0_0_41
*160 FILLER_0_0_53
*161 FILLER_0_0_57
*162 FILLER_0_0_69
*163 FILLER_0_0_81
*164 FILLER_0_0_85
*165 FILLER_0_0_97
*166 FILLER_0_10_109
*167 FILLER_0_10_121
*168 FILLER_0_10_133
*169 FILLER_0_10_139
*170 FILLER_0_10_141
*171 FILLER_0_10_15
*172 FILLER_0_10_153
*173 FILLER_0_10_165
*174 FILLER_0_10_177
*175 FILLER_0_10_189
*176 FILLER_0_10_195
*177 FILLER_0_10_197
*178 FILLER_0_10_209
*179 FILLER_0_10_221
*180 FILLER_0_10_233
*181 FILLER_0_10_245
*182 FILLER_0_10_251
*183 FILLER_0_10_253
*184 FILLER_0_10_265
*185 FILLER_0_10_27
*186 FILLER_0_10_277
*187 FILLER_0_10_289
*188 FILLER_0_10_29
*189 FILLER_0_10_3
*190 FILLER_0_10_301
*191 FILLER_0_10_307
*192 FILLER_0_10_309
*193 FILLER_0_10_321
*194 FILLER_0_10_333
*195 FILLER_0_10_41
*196 FILLER_0_10_53
*197 FILLER_0_10_65
*198 FILLER_0_10_77
*199 FILLER_0_10_83
*200 FILLER_0_10_85
*201 FILLER_0_10_97
*202 FILLER_0_11_105
*203 FILLER_0_11_111
*204 FILLER_0_11_113
*205 FILLER_0_11_125
*206 FILLER_0_11_137
*207 FILLER_0_11_149
*208 FILLER_0_11_15
*209 FILLER_0_11_161
*210 FILLER_0_11_167
*211 FILLER_0_11_169
*212 FILLER_0_11_181
*213 FILLER_0_11_193
*214 FILLER_0_11_205
*215 FILLER_0_11_217
*216 FILLER_0_11_223
*217 FILLER_0_11_225
*218 FILLER_0_11_237
*219 FILLER_0_11_249
*220 FILLER_0_11_261
*221 FILLER_0_11_27
*222 FILLER_0_11_273
*223 FILLER_0_11_279
*224 FILLER_0_11_281
*225 FILLER_0_11_293
*226 FILLER_0_11_3
*227 FILLER_0_11_305
*228 FILLER_0_11_317
*229 FILLER_0_11_329
*230 FILLER_0_11_39
*231 FILLER_0_11_51
*232 FILLER_0_11_55
*233 FILLER_0_11_57
*234 FILLER_0_11_69
*235 FILLER_0_11_81
*236 FILLER_0_11_93
*237 FILLER_0_12_109
*238 FILLER_0_12_121
*239 FILLER_0_12_133
*240 FILLER_0_12_139
*241 FILLER_0_12_141
*242 FILLER_0_12_15
*243 FILLER_0_12_153
*244 FILLER_0_12_165
*245 FILLER_0_12_177
*246 FILLER_0_12_189
*247 FILLER_0_12_195
*248 FILLER_0_12_197
*249 FILLER_0_12_209
*250 FILLER_0_12_221
*251 FILLER_0_12_233
*252 FILLER_0_12_245
*253 FILLER_0_12_251
*254 FILLER_0_12_253
*255 FILLER_0_12_265
*256 FILLER_0_12_27
*257 FILLER_0_12_277
*258 FILLER_0_12_289
*259 FILLER_0_12_29
*260 FILLER_0_12_3
*261 FILLER_0_12_301
*262 FILLER_0_12_307
*263 FILLER_0_12_309
*264 FILLER_0_12_321
*265 FILLER_0_12_333
*266 FILLER_0_12_41
*267 FILLER_0_12_53
*268 FILLER_0_12_65
*269 FILLER_0_12_77
*270 FILLER_0_12_83
*271 FILLER_0_12_85
*272 FILLER_0_12_97
*273 FILLER_0_13_105
*274 FILLER_0_13_111
*275 FILLER_0_13_113
*276 FILLER_0_13_125
*277 FILLER_0_13_137
*278 FILLER_0_13_149
*279 FILLER_0_13_15
*280 FILLER_0_13_161
*281 FILLER_0_13_167
*282 FILLER_0_13_169
*283 FILLER_0_13_181
*284 FILLER_0_13_193
*285 FILLER_0_13_205
*286 FILLER_0_13_217
*287 FILLER_0_13_223
*288 FILLER_0_13_225
*289 FILLER_0_13_237
*290 FILLER_0_13_249
*291 FILLER_0_13_261
*292 FILLER_0_13_27
*293 FILLER_0_13_273
*294 FILLER_0_13_279
*295 FILLER_0_13_281
*296 FILLER_0_13_293
*297 FILLER_0_13_3
*298 FILLER_0_13_305
*299 FILLER_0_13_317
*300 FILLER_0_13_329
*301 FILLER_0_13_39
*302 FILLER_0_13_51
*303 FILLER_0_13_55
*304 FILLER_0_13_57
*305 FILLER_0_13_69
*306 FILLER_0_13_81
*307 FILLER_0_13_93
*308 FILLER_0_14_109
*309 FILLER_0_14_121
*310 FILLER_0_14_133
*311 FILLER_0_14_139
*312 FILLER_0_14_141
*313 FILLER_0_14_15
*314 FILLER_0_14_153
*315 FILLER_0_14_165
*316 FILLER_0_14_177
*317 FILLER_0_14_189
*318 FILLER_0_14_195
*319 FILLER_0_14_197
*320 FILLER_0_14_209
*321 FILLER_0_14_221
*322 FILLER_0_14_233
*323 FILLER_0_14_245
*324 FILLER_0_14_251
*325 FILLER_0_14_253
*326 FILLER_0_14_265
*327 FILLER_0_14_27
*328 FILLER_0_14_277
*329 FILLER_0_14_289
*330 FILLER_0_14_29
*331 FILLER_0_14_3
*332 FILLER_0_14_301
*333 FILLER_0_14_307
*334 FILLER_0_14_309
*335 FILLER_0_14_321
*336 FILLER_0_14_333
*337 FILLER_0_14_41
*338 FILLER_0_14_53
*339 FILLER_0_14_65
*340 FILLER_0_14_77
*341 FILLER_0_14_83
*342 FILLER_0_14_85
*343 FILLER_0_14_97
*344 FILLER_0_15_105
*345 FILLER_0_15_111
*346 FILLER_0_15_113
*347 FILLER_0_15_125
*348 FILLER_0_15_137
*349 FILLER_0_15_149
*350 FILLER_0_15_15
*351 FILLER_0_15_161
*352 FILLER_0_15_167
*353 FILLER_0_15_169
*354 FILLER_0_15_181
*355 FILLER_0_15_193
*356 FILLER_0_15_205
*357 FILLER_0_15_217
*358 FILLER_0_15_223
*359 FILLER_0_15_225
*360 FILLER_0_15_237
*361 FILLER_0_15_249
*362 FILLER_0_15_261
*363 FILLER_0_15_27
*364 FILLER_0_15_273
*365 FILLER_0_15_279
*366 FILLER_0_15_281
*367 FILLER_0_15_293
*368 FILLER_0_15_3
*369 FILLER_0_15_305
*370 FILLER_0_15_317
*371 FILLER_0_15_329
*372 FILLER_0_15_39
*373 FILLER_0_15_51
*374 FILLER_0_15_55
*375 FILLER_0_15_57
*376 FILLER_0_15_69
*377 FILLER_0_15_81
*378 FILLER_0_15_93
*379 FILLER_0_16_109
*380 FILLER_0_16_121
*381 FILLER_0_16_133
*382 FILLER_0_16_139
*383 FILLER_0_16_141
*384 FILLER_0_16_15
*385 FILLER_0_16_153
*386 FILLER_0_16_165
*387 FILLER_0_16_177
*388 FILLER_0_16_189
*389 FILLER_0_16_195
*390 FILLER_0_16_197
*391 FILLER_0_16_209
*392 FILLER_0_16_221
*393 FILLER_0_16_233
*394 FILLER_0_16_245
*395 FILLER_0_16_251
*396 FILLER_0_16_253
*397 FILLER_0_16_265
*398 FILLER_0_16_27
*399 FILLER_0_16_277
*400 FILLER_0_16_289
*401 FILLER_0_16_29
*402 FILLER_0_16_3
*403 FILLER_0_16_301
*404 FILLER_0_16_307
*405 FILLER_0_16_309
*406 FILLER_0_16_321
*407 FILLER_0_16_333
*408 FILLER_0_16_41
*409 FILLER_0_16_53
*410 FILLER_0_16_65
*411 FILLER_0_16_77
*412 FILLER_0_16_83
*413 FILLER_0_16_85
*414 FILLER_0_16_97
*415 FILLER_0_17_105
*416 FILLER_0_17_111
*417 FILLER_0_17_113
*418 FILLER_0_17_125
*419 FILLER_0_17_137
*420 FILLER_0_17_149
*421 FILLER_0_17_15
*422 FILLER_0_17_161
*423 FILLER_0_17_167
*424 FILLER_0_17_169
*425 FILLER_0_17_181
*426 FILLER_0_17_193
*427 FILLER_0_17_205
*428 FILLER_0_17_217
*429 FILLER_0_17_223
*430 FILLER_0_17_225
*431 FILLER_0_17_237
*432 FILLER_0_17_249
*433 FILLER_0_17_261
*434 FILLER_0_17_27
*435 FILLER_0_17_273
*436 FILLER_0_17_279
*437 FILLER_0_17_281
*438 FILLER_0_17_293
*439 FILLER_0_17_3
*440 FILLER_0_17_305
*441 FILLER_0_17_317
*442 FILLER_0_17_329
*443 FILLER_0_17_39
*444 FILLER_0_17_51
*445 FILLER_0_17_55
*446 FILLER_0_17_57
*447 FILLER_0_17_69
*448 FILLER_0_17_81
*449 FILLER_0_17_93
*450 FILLER_0_18_109
*451 FILLER_0_18_121
*452 FILLER_0_18_133
*453 FILLER_0_18_139
*454 FILLER_0_18_141
*455 FILLER_0_18_15
*456 FILLER_0_18_153
*457 FILLER_0_18_165
*458 FILLER_0_18_177
*459 FILLER_0_18_189
*460 FILLER_0_18_195
*461 FILLER_0_18_197
*462 FILLER_0_18_209
*463 FILLER_0_18_221
*464 FILLER_0_18_233
*465 FILLER_0_18_245
*466 FILLER_0_18_251
*467 FILLER_0_18_253
*468 FILLER_0_18_265
*469 FILLER_0_18_27
*470 FILLER_0_18_277
*471 FILLER_0_18_289
*472 FILLER_0_18_29
*473 FILLER_0_18_3
*474 FILLER_0_18_301
*475 FILLER_0_18_307
*476 FILLER_0_18_309
*477 FILLER_0_18_321
*478 FILLER_0_18_333
*479 FILLER_0_18_41
*480 FILLER_0_18_53
*481 FILLER_0_18_65
*482 FILLER_0_18_77
*483 FILLER_0_18_83
*484 FILLER_0_18_85
*485 FILLER_0_18_97
*486 FILLER_0_19_105
*487 FILLER_0_19_111
*488 FILLER_0_19_113
*489 FILLER_0_19_125
*490 FILLER_0_19_137
*491 FILLER_0_19_149
*492 FILLER_0_19_15
*493 FILLER_0_19_161
*494 FILLER_0_19_167
*495 FILLER_0_19_169
*496 FILLER_0_19_181
*497 FILLER_0_19_193
*498 FILLER_0_19_205
*499 FILLER_0_19_217
*500 FILLER_0_19_223
*501 FILLER_0_19_225
*502 FILLER_0_19_237
*503 FILLER_0_19_249
*504 FILLER_0_19_261
*505 FILLER_0_19_27
*506 FILLER_0_19_273
*507 FILLER_0_19_279
*508 FILLER_0_19_281
*509 FILLER_0_19_293
*510 FILLER_0_19_3
*511 FILLER_0_19_305
*512 FILLER_0_19_317
*513 FILLER_0_19_329
*514 FILLER_0_19_39
*515 FILLER_0_19_51
*516 FILLER_0_19_55
*517 FILLER_0_19_57
*518 FILLER_0_19_69
*519 FILLER_0_19_81
*520 FILLER_0_19_93
*521 FILLER_0_1_105
*522 FILLER_0_1_111
*523 FILLER_0_1_113
*524 FILLER_0_1_125
*525 FILLER_0_1_137
*526 FILLER_0_1_149
*527 FILLER_0_1_15
*528 FILLER_0_1_161
*529 FILLER_0_1_167
*530 FILLER_0_1_169
*531 FILLER_0_1_181
*532 FILLER_0_1_193
*533 FILLER_0_1_205
*534 FILLER_0_1_217
*535 FILLER_0_1_223
*536 FILLER_0_1_225
*537 FILLER_0_1_237
*538 FILLER_0_1_249
*539 FILLER_0_1_261
*540 FILLER_0_1_27
*541 FILLER_0_1_273
*542 FILLER_0_1_279
*543 FILLER_0_1_281
*544 FILLER_0_1_293
*545 FILLER_0_1_3
*546 FILLER_0_1_305
*547 FILLER_0_1_317
*548 FILLER_0_1_329
*549 FILLER_0_1_39
*550 FILLER_0_1_51
*551 FILLER_0_1_55
*552 FILLER_0_1_57
*553 FILLER_0_1_69
*554 FILLER_0_1_81
*555 FILLER_0_1_93
*556 FILLER_0_20_109
*557 FILLER_0_20_121
*558 FILLER_0_20_133
*559 FILLER_0_20_139
*560 FILLER_0_20_141
*561 FILLER_0_20_15
*562 FILLER_0_20_153
*563 FILLER_0_20_165
*564 FILLER_0_20_177
*565 FILLER_0_20_189
*566 FILLER_0_20_195
*567 FILLER_0_20_197
*568 FILLER_0_20_209
*569 FILLER_0_20_221
*570 FILLER_0_20_233
*571 FILLER_0_20_245
*572 FILLER_0_20_251
*573 FILLER_0_20_253
*574 FILLER_0_20_265
*575 FILLER_0_20_27
*576 FILLER_0_20_277
*577 FILLER_0_20_289
*578 FILLER_0_20_29
*579 FILLER_0_20_3
*580 FILLER_0_20_301
*581 FILLER_0_20_307
*582 FILLER_0_20_309
*583 FILLER_0_20_321
*584 FILLER_0_20_333
*585 FILLER_0_20_41
*586 FILLER_0_20_53
*587 FILLER_0_20_65
*588 FILLER_0_20_77
*589 FILLER_0_20_83
*590 FILLER_0_20_85
*591 FILLER_0_20_97
*592 FILLER_0_21_105
*593 FILLER_0_21_111
*594 FILLER_0_21_113
*595 FILLER_0_21_125
*596 FILLER_0_21_137
*597 FILLER_0_21_149
*598 FILLER_0_21_15
*599 FILLER_0_21_161
*600 FILLER_0_21_167
*601 FILLER_0_21_169
*602 FILLER_0_21_181
*603 FILLER_0_21_193
*604 FILLER_0_21_205
*605 FILLER_0_21_217
*606 FILLER_0_21_223
*607 FILLER_0_21_225
*608 FILLER_0_21_237
*609 FILLER_0_21_249
*610 FILLER_0_21_261
*611 FILLER_0_21_27
*612 FILLER_0_21_273
*613 FILLER_0_21_279
*614 FILLER_0_21_281
*615 FILLER_0_21_293
*616 FILLER_0_21_3
*617 FILLER_0_21_305
*618 FILLER_0_21_317
*619 FILLER_0_21_329
*620 FILLER_0_21_39
*621 FILLER_0_21_51
*622 FILLER_0_21_55
*623 FILLER_0_21_57
*624 FILLER_0_21_69
*625 FILLER_0_21_81
*626 FILLER_0_21_93
*627 FILLER_0_22_109
*628 FILLER_0_22_121
*629 FILLER_0_22_133
*630 FILLER_0_22_139
*631 FILLER_0_22_141
*632 FILLER_0_22_15
*633 FILLER_0_22_153
*634 FILLER_0_22_165
*635 FILLER_0_22_177
*636 FILLER_0_22_189
*637 FILLER_0_22_195
*638 FILLER_0_22_197
*639 FILLER_0_22_209
*640 FILLER_0_22_221
*641 FILLER_0_22_233
*642 FILLER_0_22_245
*643 FILLER_0_22_251
*644 FILLER_0_22_253
*645 FILLER_0_22_265
*646 FILLER_0_22_27
*647 FILLER_0_22_277
*648 FILLER_0_22_289
*649 FILLER_0_22_29
*650 FILLER_0_22_3
*651 FILLER_0_22_301
*652 FILLER_0_22_307
*653 FILLER_0_22_309
*654 FILLER_0_22_321
*655 FILLER_0_22_333
*656 FILLER_0_22_41
*657 FILLER_0_22_53
*658 FILLER_0_22_65
*659 FILLER_0_22_77
*660 FILLER_0_22_83
*661 FILLER_0_22_85
*662 FILLER_0_22_97
*663 FILLER_0_23_105
*664 FILLER_0_23_111
*665 FILLER_0_23_113
*666 FILLER_0_23_125
*667 FILLER_0_23_137
*668 FILLER_0_23_149
*669 FILLER_0_23_15
*670 FILLER_0_23_161
*671 FILLER_0_23_167
*672 FILLER_0_23_169
*673 FILLER_0_23_181
*674 FILLER_0_23_193
*675 FILLER_0_23_205
*676 FILLER_0_23_217
*677 FILLER_0_23_223
*678 FILLER_0_23_225
*679 FILLER_0_23_237
*680 FILLER_0_23_249
*681 FILLER_0_23_261
*682 FILLER_0_23_27
*683 FILLER_0_23_273
*684 FILLER_0_23_279
*685 FILLER_0_23_281
*686 FILLER_0_23_293
*687 FILLER_0_23_3
*688 FILLER_0_23_305
*689 FILLER_0_23_317
*690 FILLER_0_23_329
*691 FILLER_0_23_39
*692 FILLER_0_23_51
*693 FILLER_0_23_55
*694 FILLER_0_23_57
*695 FILLER_0_23_69
*696 FILLER_0_23_81
*697 FILLER_0_23_93
*698 FILLER_0_24_109
*699 FILLER_0_24_121
*700 FILLER_0_24_133
*701 FILLER_0_24_139
*702 FILLER_0_24_141
*703 FILLER_0_24_15
*704 FILLER_0_24_153
*705 FILLER_0_24_165
*706 FILLER_0_24_177
*707 FILLER_0_24_189
*708 FILLER_0_24_195
*709 FILLER_0_24_197
*710 FILLER_0_24_209
*711 FILLER_0_24_221
*712 FILLER_0_24_233
*713 FILLER_0_24_245
*714 FILLER_0_24_251
*715 FILLER_0_24_253
*716 FILLER_0_24_265
*717 FILLER_0_24_27
*718 FILLER_0_24_277
*719 FILLER_0_24_289
*720 FILLER_0_24_29
*721 FILLER_0_24_3
*722 FILLER_0_24_301
*723 FILLER_0_24_307
*724 FILLER_0_24_309
*725 FILLER_0_24_321
*726 FILLER_0_24_333
*727 FILLER_0_24_41
*728 FILLER_0_24_53
*729 FILLER_0_24_65
*730 FILLER_0_24_77
*731 FILLER_0_24_83
*732 FILLER_0_24_85
*733 FILLER_0_24_97
*734 FILLER_0_25_105
*735 FILLER_0_25_111
*736 FILLER_0_25_113
*737 FILLER_0_25_125
*738 FILLER_0_25_137
*739 FILLER_0_25_149
*740 FILLER_0_25_15
*741 FILLER_0_25_161
*742 FILLER_0_25_167
*743 FILLER_0_25_169
*744 FILLER_0_25_181
*745 FILLER_0_25_193
*746 FILLER_0_25_205
*747 FILLER_0_25_217
*748 FILLER_0_25_223
*749 FILLER_0_25_225
*750 FILLER_0_25_237
*751 FILLER_0_25_249
*752 FILLER_0_25_261
*753 FILLER_0_25_27
*754 FILLER_0_25_273
*755 FILLER_0_25_279
*756 FILLER_0_25_281
*757 FILLER_0_25_293
*758 FILLER_0_25_3
*759 FILLER_0_25_305
*760 FILLER_0_25_317
*761 FILLER_0_25_329
*762 FILLER_0_25_39
*763 FILLER_0_25_51
*764 FILLER_0_25_55
*765 FILLER_0_25_57
*766 FILLER_0_25_69
*767 FILLER_0_25_81
*768 FILLER_0_25_93
*769 FILLER_0_26_109
*770 FILLER_0_26_121
*771 FILLER_0_26_133
*772 FILLER_0_26_139
*773 FILLER_0_26_141
*774 FILLER_0_26_15
*775 FILLER_0_26_153
*776 FILLER_0_26_165
*777 FILLER_0_26_177
*778 FILLER_0_26_189
*779 FILLER_0_26_195
*780 FILLER_0_26_197
*781 FILLER_0_26_209
*782 FILLER_0_26_221
*783 FILLER_0_26_233
*784 FILLER_0_26_245
*785 FILLER_0_26_251
*786 FILLER_0_26_253
*787 FILLER_0_26_265
*788 FILLER_0_26_27
*789 FILLER_0_26_277
*790 FILLER_0_26_289
*791 FILLER_0_26_29
*792 FILLER_0_26_3
*793 FILLER_0_26_301
*794 FILLER_0_26_307
*795 FILLER_0_26_309
*796 FILLER_0_26_321
*797 FILLER_0_26_333
*798 FILLER_0_26_41
*799 FILLER_0_26_53
*800 FILLER_0_26_65
*801 FILLER_0_26_77
*802 FILLER_0_26_83
*803 FILLER_0_26_85
*804 FILLER_0_26_97
*805 FILLER_0_27_105
*806 FILLER_0_27_111
*807 FILLER_0_27_113
*808 FILLER_0_27_125
*809 FILLER_0_27_137
*810 FILLER_0_27_149
*811 FILLER_0_27_15
*812 FILLER_0_27_161
*813 FILLER_0_27_167
*814 FILLER_0_27_169
*815 FILLER_0_27_181
*816 FILLER_0_27_193
*817 FILLER_0_27_205
*818 FILLER_0_27_217
*819 FILLER_0_27_223
*820 FILLER_0_27_225
*821 FILLER_0_27_237
*822 FILLER_0_27_249
*823 FILLER_0_27_261
*824 FILLER_0_27_27
*825 FILLER_0_27_273
*826 FILLER_0_27_279
*827 FILLER_0_27_281
*828 FILLER_0_27_293
*829 FILLER_0_27_3
*830 FILLER_0_27_305
*831 FILLER_0_27_317
*832 FILLER_0_27_329
*833 FILLER_0_27_39
*834 FILLER_0_27_51
*835 FILLER_0_27_55
*836 FILLER_0_27_57
*837 FILLER_0_27_69
*838 FILLER_0_27_81
*839 FILLER_0_27_93
*840 FILLER_0_28_109
*841 FILLER_0_28_121
*842 FILLER_0_28_133
*843 FILLER_0_28_139
*844 FILLER_0_28_141
*845 FILLER_0_28_15
*846 FILLER_0_28_153
*847 FILLER_0_28_165
*848 FILLER_0_28_177
*849 FILLER_0_28_189
*850 FILLER_0_28_195
*851 FILLER_0_28_197
*852 FILLER_0_28_209
*853 FILLER_0_28_221
*854 FILLER_0_28_233
*855 FILLER_0_28_245
*856 FILLER_0_28_251
*857 FILLER_0_28_253
*858 FILLER_0_28_265
*859 FILLER_0_28_27
*860 FILLER_0_28_277
*861 FILLER_0_28_289
*862 FILLER_0_28_29
*863 FILLER_0_28_3
*864 FILLER_0_28_301
*865 FILLER_0_28_307
*866 FILLER_0_28_309
*867 FILLER_0_28_321
*868 FILLER_0_28_333
*869 FILLER_0_28_41
*870 FILLER_0_28_53
*871 FILLER_0_28_65
*872 FILLER_0_28_77
*873 FILLER_0_28_83
*874 FILLER_0_28_85
*875 FILLER_0_28_97
*876 FILLER_0_29_105
*877 FILLER_0_29_111
*878 FILLER_0_29_113
*879 FILLER_0_29_125
*880 FILLER_0_29_137
*881 FILLER_0_29_149
*882 FILLER_0_29_15
*883 FILLER_0_29_161
*884 FILLER_0_29_167
*885 FILLER_0_29_169
*886 FILLER_0_29_181
*887 FILLER_0_29_193
*888 FILLER_0_29_205
*889 FILLER_0_29_217
*890 FILLER_0_29_223
*891 FILLER_0_29_225
*892 FILLER_0_29_237
*893 FILLER_0_29_249
*894 FILLER_0_29_261
*895 FILLER_0_29_27
*896 FILLER_0_29_273
*897 FILLER_0_29_279
*898 FILLER_0_29_281
*899 FILLER_0_29_293
*900 FILLER_0_29_3
*901 FILLER_0_29_305
*902 FILLER_0_29_317
*903 FILLER_0_29_329
*904 FILLER_0_29_39
*905 FILLER_0_29_51
*906 FILLER_0_29_55
*907 FILLER_0_29_57
*908 FILLER_0_29_69
*909 FILLER_0_29_81
*910 FILLER_0_29_93
*911 FILLER_0_2_109
*912 FILLER_0_2_121
*913 FILLER_0_2_133
*914 FILLER_0_2_139
*915 FILLER_0_2_141
*916 FILLER_0_2_15
*917 FILLER_0_2_153
*918 FILLER_0_2_165
*919 FILLER_0_2_177
*920 FILLER_0_2_189
*921 FILLER_0_2_195
*922 FILLER_0_2_197
*923 FILLER_0_2_209
*924 FILLER_0_2_221
*925 FILLER_0_2_233
*926 FILLER_0_2_245
*927 FILLER_0_2_251
*928 FILLER_0_2_253
*929 FILLER_0_2_265
*930 FILLER_0_2_27
*931 FILLER_0_2_277
*932 FILLER_0_2_289
*933 FILLER_0_2_29
*934 FILLER_0_2_3
*935 FILLER_0_2_301
*936 FILLER_0_2_307
*937 FILLER_0_2_309
*938 FILLER_0_2_321
*939 FILLER_0_2_333
*940 FILLER_0_2_41
*941 FILLER_0_2_53
*942 FILLER_0_2_65
*943 FILLER_0_2_77
*944 FILLER_0_2_83
*945 FILLER_0_2_85
*946 FILLER_0_2_97
*947 FILLER_0_30_109
*948 FILLER_0_30_121
*949 FILLER_0_30_133
*950 FILLER_0_30_139
*951 FILLER_0_30_141
*952 FILLER_0_30_15
*953 FILLER_0_30_153
*954 FILLER_0_30_165
*955 FILLER_0_30_177
*956 FILLER_0_30_189
*957 FILLER_0_30_195
*958 FILLER_0_30_197
*959 FILLER_0_30_209
*960 FILLER_0_30_221
*961 FILLER_0_30_233
*962 FILLER_0_30_245
*963 FILLER_0_30_251
*964 FILLER_0_30_253
*965 FILLER_0_30_265
*966 FILLER_0_30_27
*967 FILLER_0_30_277
*968 FILLER_0_30_289
*969 FILLER_0_30_29
*970 FILLER_0_30_3
*971 FILLER_0_30_301
*972 FILLER_0_30_307
*973 FILLER_0_30_309
*974 FILLER_0_30_321
*975 FILLER_0_30_333
*976 FILLER_0_30_41
*977 FILLER_0_30_53
*978 FILLER_0_30_65
*979 FILLER_0_30_77
*980 FILLER_0_30_83
*981 FILLER_0_30_85
*982 FILLER_0_30_97
*983 FILLER_0_31_105
*984 FILLER_0_31_111
*985 FILLER_0_31_113
*986 FILLER_0_31_125
*987 FILLER_0_31_133
*988 FILLER_0_31_138
*989 FILLER_0_31_149
*990 FILLER_0_31_15
*991 FILLER_0_31_161
*992 FILLER_0_31_167
*993 FILLER_0_31_169
*994 FILLER_0_31_181
*995 FILLER_0_31_189
*996 FILLER_0_31_193
*997 FILLER_0_31_205
*998 FILLER_0_31_211
*999 FILLER_0_31_223
*1000 FILLER_0_31_225
*1001 FILLER_0_31_237
*1002 FILLER_0_31_249
*1003 FILLER_0_31_261
*1004 FILLER_0_31_27
*1005 FILLER_0_31_273
*1006 FILLER_0_31_279
*1007 FILLER_0_31_281
*1008 FILLER_0_31_293
*1009 FILLER_0_31_3
*1010 FILLER_0_31_305
*1011 FILLER_0_31_317
*1012 FILLER_0_31_329
*1013 FILLER_0_31_39
*1014 FILLER_0_31_51
*1015 FILLER_0_31_55
*1016 FILLER_0_31_57
*1017 FILLER_0_31_69
*1018 FILLER_0_31_81
*1019 FILLER_0_31_93
*1020 FILLER_0_32_109
*1021 FILLER_0_32_121
*1022 FILLER_0_32_129
*1023 FILLER_0_32_146
*1024 FILLER_0_32_15
*1025 FILLER_0_32_183
*1026 FILLER_0_32_189
*1027 FILLER_0_32_195
*1028 FILLER_0_32_197
*1029 FILLER_0_32_210
*1030 FILLER_0_32_227
*1031 FILLER_0_32_239
*1032 FILLER_0_32_251
*1033 FILLER_0_32_253
*1034 FILLER_0_32_265
*1035 FILLER_0_32_27
*1036 FILLER_0_32_277
*1037 FILLER_0_32_289
*1038 FILLER_0_32_29
*1039 FILLER_0_32_3
*1040 FILLER_0_32_301
*1041 FILLER_0_32_307
*1042 FILLER_0_32_309
*1043 FILLER_0_32_321
*1044 FILLER_0_32_333
*1045 FILLER_0_32_41
*1046 FILLER_0_32_53
*1047 FILLER_0_32_65
*1048 FILLER_0_32_77
*1049 FILLER_0_32_83
*1050 FILLER_0_32_85
*1051 FILLER_0_32_97
*1052 FILLER_0_33_105
*1053 FILLER_0_33_111
*1054 FILLER_0_33_113
*1055 FILLER_0_33_125
*1056 FILLER_0_33_134
*1057 FILLER_0_33_146
*1058 FILLER_0_33_15
*1059 FILLER_0_33_154
*1060 FILLER_0_33_160
*1061 FILLER_0_33_169
*1062 FILLER_0_33_215
*1063 FILLER_0_33_223
*1064 FILLER_0_33_225
*1065 FILLER_0_33_237
*1066 FILLER_0_33_249
*1067 FILLER_0_33_261
*1068 FILLER_0_33_27
*1069 FILLER_0_33_273
*1070 FILLER_0_33_279
*1071 FILLER_0_33_281
*1072 FILLER_0_33_293
*1073 FILLER_0_33_3
*1074 FILLER_0_33_305
*1075 FILLER_0_33_317
*1076 FILLER_0_33_329
*1077 FILLER_0_33_39
*1078 FILLER_0_33_51
*1079 FILLER_0_33_55
*1080 FILLER_0_33_57
*1081 FILLER_0_33_69
*1082 FILLER_0_33_81
*1083 FILLER_0_33_93
*1084 FILLER_0_34_109
*1085 FILLER_0_34_141
*1086 FILLER_0_34_15
*1087 FILLER_0_34_175
*1088 FILLER_0_34_195
*1089 FILLER_0_34_197
*1090 FILLER_0_34_210
*1091 FILLER_0_34_223
*1092 FILLER_0_34_245
*1093 FILLER_0_34_251
*1094 FILLER_0_34_253
*1095 FILLER_0_34_265
*1096 FILLER_0_34_27
*1097 FILLER_0_34_277
*1098 FILLER_0_34_289
*1099 FILLER_0_34_29
*1100 FILLER_0_34_3
*1101 FILLER_0_34_301
*1102 FILLER_0_34_307
*1103 FILLER_0_34_309
*1104 FILLER_0_34_321
*1105 FILLER_0_34_333
*1106 FILLER_0_34_41
*1107 FILLER_0_34_53
*1108 FILLER_0_34_65
*1109 FILLER_0_34_77
*1110 FILLER_0_34_83
*1111 FILLER_0_34_85
*1112 FILLER_0_34_97
*1113 FILLER_0_35_105
*1114 FILLER_0_35_111
*1115 FILLER_0_35_113
*1116 FILLER_0_35_125
*1117 FILLER_0_35_134
*1118 FILLER_0_35_144
*1119 FILLER_0_35_15
*1120 FILLER_0_35_151
*1121 FILLER_0_35_155
*1122 FILLER_0_35_159
*1123 FILLER_0_35_169
*1124 FILLER_0_35_189
*1125 FILLER_0_35_245
*1126 FILLER_0_35_257
*1127 FILLER_0_35_269
*1128 FILLER_0_35_27
*1129 FILLER_0_35_277
*1130 FILLER_0_35_281
*1131 FILLER_0_35_293
*1132 FILLER_0_35_3
*1133 FILLER_0_35_305
*1134 FILLER_0_35_317
*1135 FILLER_0_35_329
*1136 FILLER_0_35_39
*1137 FILLER_0_35_51
*1138 FILLER_0_35_55
*1139 FILLER_0_35_57
*1140 FILLER_0_35_69
*1141 FILLER_0_35_81
*1142 FILLER_0_35_93
*1143 FILLER_0_36_109
*1144 FILLER_0_36_121
*1145 FILLER_0_36_141
*1146 FILLER_0_36_148
*1147 FILLER_0_36_15
*1148 FILLER_0_36_154
*1149 FILLER_0_36_164
*1150 FILLER_0_36_172
*1151 FILLER_0_36_177
*1152 FILLER_0_36_189
*1153 FILLER_0_36_195
*1154 FILLER_0_36_197
*1155 FILLER_0_36_211
*1156 FILLER_0_36_217
*1157 FILLER_0_36_222
*1158 FILLER_0_36_228
*1159 FILLER_0_36_240
*1160 FILLER_0_36_27
*1161 FILLER_0_36_273
*1162 FILLER_0_36_285
*1163 FILLER_0_36_29
*1164 FILLER_0_36_3
*1165 FILLER_0_36_301
*1166 FILLER_0_36_307
*1167 FILLER_0_36_309
*1168 FILLER_0_36_321
*1169 FILLER_0_36_333
*1170 FILLER_0_36_41
*1171 FILLER_0_36_53
*1172 FILLER_0_36_65
*1173 FILLER_0_36_77
*1174 FILLER_0_36_83
*1175 FILLER_0_36_85
*1176 FILLER_0_36_97
*1177 FILLER_0_37_105
*1178 FILLER_0_37_111
*1179 FILLER_0_37_113
*1180 FILLER_0_37_125
*1181 FILLER_0_37_129
*1182 FILLER_0_37_133
*1183 FILLER_0_37_15
*1184 FILLER_0_37_164
*1185 FILLER_0_37_175
*1186 FILLER_0_37_183
*1187 FILLER_0_37_193
*1188 FILLER_0_37_204
*1189 FILLER_0_37_214
*1190 FILLER_0_37_218
*1191 FILLER_0_37_235
*1192 FILLER_0_37_255
*1193 FILLER_0_37_267
*1194 FILLER_0_37_27
*1195 FILLER_0_37_279
*1196 FILLER_0_37_281
*1197 FILLER_0_37_298
*1198 FILLER_0_37_3
*1199 FILLER_0_37_315
*1200 FILLER_0_37_327
*1201 FILLER_0_37_39
*1202 FILLER_0_37_51
*1203 FILLER_0_37_55
*1204 FILLER_0_37_57
*1205 FILLER_0_37_69
*1206 FILLER_0_37_81
*1207 FILLER_0_37_93
*1208 FILLER_0_38_10
*1209 FILLER_0_38_102
*1210 FILLER_0_38_106
*1211 FILLER_0_38_110
*1212 FILLER_0_38_113
*1213 FILLER_0_38_118
*1214 FILLER_0_38_122
*1215 FILLER_0_38_126
*1216 FILLER_0_38_136
*1217 FILLER_0_38_14
*1218 FILLER_0_38_144
*1219 FILLER_0_38_150
*1220 FILLER_0_38_162
*1221 FILLER_0_38_18
*1222 FILLER_0_38_191
*1223 FILLER_0_38_195
*1224 FILLER_0_38_197
*1225 FILLER_0_38_209
*1226 FILLER_0_38_215
*1227 FILLER_0_38_22
*1228 FILLER_0_38_223
*1229 FILLER_0_38_244
*1230 FILLER_0_38_253
*1231 FILLER_0_38_265
*1232 FILLER_0_38_277
*1233 FILLER_0_38_281
*1234 FILLER_0_38_293
*1235 FILLER_0_38_305
*1236 FILLER_0_38_309
*1237 FILLER_0_38_318
*1238 FILLER_0_38_32
*1239 FILLER_0_38_322
*1240 FILLER_0_38_326
*1241 FILLER_0_38_334
*1242 FILLER_0_38_38
*1243 FILLER_0_38_42
*1244 FILLER_0_38_46
*1245 FILLER_0_38_50
*1246 FILLER_0_38_54
*1247 FILLER_0_38_57
*1248 FILLER_0_38_6
*1249 FILLER_0_38_62
*1250 FILLER_0_38_66
*1251 FILLER_0_38_70
*1252 FILLER_0_38_74
*1253 FILLER_0_38_78
*1254 FILLER_0_38_88
*1255 FILLER_0_38_94
*1256 FILLER_0_38_98
*1257 FILLER_0_3_105
*1258 FILLER_0_3_111
*1259 FILLER_0_3_113
*1260 FILLER_0_3_125
*1261 FILLER_0_3_137
*1262 FILLER_0_3_149
*1263 FILLER_0_3_15
*1264 FILLER_0_3_161
*1265 FILLER_0_3_167
*1266 FILLER_0_3_169
*1267 FILLER_0_3_181
*1268 FILLER_0_3_193
*1269 FILLER_0_3_205
*1270 FILLER_0_3_217
*1271 FILLER_0_3_223
*1272 FILLER_0_3_225
*1273 FILLER_0_3_237
*1274 FILLER_0_3_249
*1275 FILLER_0_3_261
*1276 FILLER_0_3_27
*1277 FILLER_0_3_273
*1278 FILLER_0_3_279
*1279 FILLER_0_3_281
*1280 FILLER_0_3_293
*1281 FILLER_0_3_3
*1282 FILLER_0_3_305
*1283 FILLER_0_3_317
*1284 FILLER_0_3_329
*1285 FILLER_0_3_39
*1286 FILLER_0_3_51
*1287 FILLER_0_3_55
*1288 FILLER_0_3_57
*1289 FILLER_0_3_69
*1290 FILLER_0_3_81
*1291 FILLER_0_3_93
*1292 FILLER_0_4_109
*1293 FILLER_0_4_121
*1294 FILLER_0_4_133
*1295 FILLER_0_4_139
*1296 FILLER_0_4_141
*1297 FILLER_0_4_15
*1298 FILLER_0_4_153
*1299 FILLER_0_4_165
*1300 FILLER_0_4_177
*1301 FILLER_0_4_189
*1302 FILLER_0_4_195
*1303 FILLER_0_4_197
*1304 FILLER_0_4_209
*1305 FILLER_0_4_221
*1306 FILLER_0_4_233
*1307 FILLER_0_4_245
*1308 FILLER_0_4_251
*1309 FILLER_0_4_253
*1310 FILLER_0_4_265
*1311 FILLER_0_4_27
*1312 FILLER_0_4_277
*1313 FILLER_0_4_289
*1314 FILLER_0_4_29
*1315 FILLER_0_4_3
*1316 FILLER_0_4_301
*1317 FILLER_0_4_307
*1318 FILLER_0_4_309
*1319 FILLER_0_4_321
*1320 FILLER_0_4_333
*1321 FILLER_0_4_41
*1322 FILLER_0_4_53
*1323 FILLER_0_4_65
*1324 FILLER_0_4_77
*1325 FILLER_0_4_83
*1326 FILLER_0_4_85
*1327 FILLER_0_4_97
*1328 FILLER_0_5_105
*1329 FILLER_0_5_111
*1330 FILLER_0_5_113
*1331 FILLER_0_5_125
*1332 FILLER_0_5_137
*1333 FILLER_0_5_149
*1334 FILLER_0_5_15
*1335 FILLER_0_5_161
*1336 FILLER_0_5_167
*1337 FILLER_0_5_169
*1338 FILLER_0_5_181
*1339 FILLER_0_5_193
*1340 FILLER_0_5_205
*1341 FILLER_0_5_217
*1342 FILLER_0_5_223
*1343 FILLER_0_5_225
*1344 FILLER_0_5_237
*1345 FILLER_0_5_249
*1346 FILLER_0_5_261
*1347 FILLER_0_5_27
*1348 FILLER_0_5_273
*1349 FILLER_0_5_279
*1350 FILLER_0_5_281
*1351 FILLER_0_5_293
*1352 FILLER_0_5_3
*1353 FILLER_0_5_305
*1354 FILLER_0_5_317
*1355 FILLER_0_5_329
*1356 FILLER_0_5_39
*1357 FILLER_0_5_51
*1358 FILLER_0_5_55
*1359 FILLER_0_5_57
*1360 FILLER_0_5_69
*1361 FILLER_0_5_81
*1362 FILLER_0_5_93
*1363 FILLER_0_6_109
*1364 FILLER_0_6_121
*1365 FILLER_0_6_133
*1366 FILLER_0_6_139
*1367 FILLER_0_6_141
*1368 FILLER_0_6_15
*1369 FILLER_0_6_153
*1370 FILLER_0_6_165
*1371 FILLER_0_6_177
*1372 FILLER_0_6_189
*1373 FILLER_0_6_195
*1374 FILLER_0_6_197
*1375 FILLER_0_6_209
*1376 FILLER_0_6_221
*1377 FILLER_0_6_233
*1378 FILLER_0_6_245
*1379 FILLER_0_6_251
*1380 FILLER_0_6_253
*1381 FILLER_0_6_265
*1382 FILLER_0_6_27
*1383 FILLER_0_6_277
*1384 FILLER_0_6_289
*1385 FILLER_0_6_29
*1386 FILLER_0_6_3
*1387 FILLER_0_6_301
*1388 FILLER_0_6_307
*1389 FILLER_0_6_309
*1390 FILLER_0_6_321
*1391 FILLER_0_6_333
*1392 FILLER_0_6_41
*1393 FILLER_0_6_53
*1394 FILLER_0_6_65
*1395 FILLER_0_6_77
*1396 FILLER_0_6_83
*1397 FILLER_0_6_85
*1398 FILLER_0_6_97
*1399 FILLER_0_7_105
*1400 FILLER_0_7_111
*1401 FILLER_0_7_113
*1402 FILLER_0_7_125
*1403 FILLER_0_7_137
*1404 FILLER_0_7_149
*1405 FILLER_0_7_15
*1406 FILLER_0_7_161
*1407 FILLER_0_7_167
*1408 FILLER_0_7_169
*1409 FILLER_0_7_181
*1410 FILLER_0_7_193
*1411 FILLER_0_7_205
*1412 FILLER_0_7_217
*1413 FILLER_0_7_223
*1414 FILLER_0_7_225
*1415 FILLER_0_7_237
*1416 FILLER_0_7_249
*1417 FILLER_0_7_261
*1418 FILLER_0_7_27
*1419 FILLER_0_7_273
*1420 FILLER_0_7_279
*1421 FILLER_0_7_281
*1422 FILLER_0_7_293
*1423 FILLER_0_7_3
*1424 FILLER_0_7_305
*1425 FILLER_0_7_317
*1426 FILLER_0_7_329
*1427 FILLER_0_7_39
*1428 FILLER_0_7_51
*1429 FILLER_0_7_55
*1430 FILLER_0_7_57
*1431 FILLER_0_7_69
*1432 FILLER_0_7_81
*1433 FILLER_0_7_93
*1434 FILLER_0_8_109
*1435 FILLER_0_8_121
*1436 FILLER_0_8_133
*1437 FILLER_0_8_139
*1438 FILLER_0_8_141
*1439 FILLER_0_8_15
*1440 FILLER_0_8_153
*1441 FILLER_0_8_165
*1442 FILLER_0_8_177
*1443 FILLER_0_8_189
*1444 FILLER_0_8_195
*1445 FILLER_0_8_197
*1446 FILLER_0_8_209
*1447 FILLER_0_8_221
*1448 FILLER_0_8_233
*1449 FILLER_0_8_245
*1450 FILLER_0_8_251
*1451 FILLER_0_8_253
*1452 FILLER_0_8_265
*1453 FILLER_0_8_27
*1454 FILLER_0_8_277
*1455 FILLER_0_8_289
*1456 FILLER_0_8_29
*1457 FILLER_0_8_3
*1458 FILLER_0_8_301
*1459 FILLER_0_8_307
*1460 FILLER_0_8_309
*1461 FILLER_0_8_321
*1462 FILLER_0_8_333
*1463 FILLER_0_8_41
*1464 FILLER_0_8_53
*1465 FILLER_0_8_65
*1466 FILLER_0_8_77
*1467 FILLER_0_8_83
*1468 FILLER_0_8_85
*1469 FILLER_0_8_97
*1470 FILLER_0_9_105
*1471 FILLER_0_9_111
*1472 FILLER_0_9_113
*1473 FILLER_0_9_125
*1474 FILLER_0_9_137
*1475 FILLER_0_9_149
*1476 FILLER_0_9_15
*1477 FILLER_0_9_161
*1478 FILLER_0_9_167
*1479 FILLER_0_9_169
*1480 FILLER_0_9_181
*1481 FILLER_0_9_193