*SPEF "ieee 1481-1999"
*DESIGN "tt_um_MichaelBell_rle_vga"
*DATE "23:41:26 Monday May 13, 2024"
*VENDOR "The OpenROAD Project"
*PROGRAM "OpenROAD"
*VERSION "da0053d7b0014ab9c87ea148875ff6c2a0f9b658"
*DESIGN_FLOW "NAME_SCOPE LOCAL" "PIN_CAP NONE"
*DIVIDER /
*DELIMITER :
*BUS_DELIMITER []
*T_UNIT 1 NS
*C_UNIT 1 PF
*R_UNIT 1 OHM
*L_UNIT 1 HENRY

*NAME_MAP
*3 clk
*4 ena
*5 rst_n
*6 ui_in[0]
*7 ui_in[1]
*8 ui_in[2]
*9 ui_in[3]
*10 ui_in[4]
*11 ui_in[5]
*12 ui_in[6]
*13 ui_in[7]
*14 uio_in[0]
*15 uio_in[1]
*16 uio_in[2]
*17 uio_in[3]
*18 uio_in[4]
*19 uio_in[5]
*20 uio_in[6]
*21 uio_in[7]
*22 uio_oe[0]
*23 uio_oe[1]
*24 net14
*25 uio_oe[3]
*26 net15
*27 net16
*28 uio_oe[6]
*29 uio_oe[7]
*30 uio_out[0]
*31 uio_out[1]
*32 net17
*33 uio_out[3]
*34 net18
*35 net19
*36 net20
*37 net21
*38 uo_out[0]
*39 uo_out[1]
*40 uo_out[2]
*41 uo_out[3]
*42 uo_out[4]
*43 uo_out[5]
*44 uo_out[6]
*45 uo_out[7]
*46 _0000_
*47 _0001_
*48 _0010_
*49 _0011_
*50 _0012_
*51 _0013_
*52 _0014_
*53 _0015_
*54 _0016_
*55 _0017_
*56 _0018_
*57 _0019_
*58 _0020_
*59 _0021_
*60 _0022_
*61 _0023_
*62 _0024_
*63 _0025_
*64 _0026_
*65 _0027_
*66 _0028_
*67 _0029_
*68 _0030_
*69 _0031_
*70 _0032_
*71 _0033_
*72 _0034_
*73 _0035_
*74 _0036_
*75 _0037_
*76 _0038_
*77 _0039_
*78 _0040_
*79 _0041_
*80 _0042_
*81 _0043_
*82 _0044_
*83 _0045_
*84 _0046_
*85 _0047_
*86 _0048_
*87 _0049_
*88 _0050_
*89 _0051_
*90 _0052_
*91 _0053_
*92 _0054_
*93 _0055_
*94 _0056_
*95 _0057_
*96 _0058_
*97 _0059_
*98 _0060_
*99 _0061_
*100 _0062_
*101 _0063_
*102 _0064_
*103 _0065_
*104 _0066_
*105 _0067_
*106 _0068_
*107 _0069_
*108 _0070_
*109 _0071_
*110 _0072_
*111 _0073_
*112 _0074_
*113 _0075_
*114 _0076_
*115 _0077_
*116 _0078_
*117 _0079_
*118 _0080_
*119 _0081_
*120 _0082_
*121 _0083_
*122 _0084_
*123 _0085_
*124 _0086_
*125 _0087_
*126 _0088_
*127 _0089_
*128 _0090_
*129 _0091_
*130 _0092_
*131 _0093_
*132 _0094_
*133 _0095_
*134 _0096_
*135 _0097_
*136 _0098_
*137 _0099_
*138 _0100_
*139 _0101_
*140 _0102_
*141 _0103_
*142 _0104_
*143 _0105_
*144 _0106_
*145 _0107_
*146 _0108_
*147 _0109_
*148 _0110_
*149 _0111_
*150 _0112_
*151 _0113_
*152 _0114_
*153 _0115_
*154 _0116_
*155 _0117_
*156 _0118_
*157 _0119_
*158 _0120_
*159 _0121_
*160 _0122_
*161 _0123_
*162 _0124_
*163 _0125_
*164 _0126_
*165 _0127_
*166 _0128_
*167 _0129_
*168 _0130_
*169 _0131_
*170 _0132_
*171 _0133_
*172 _0134_
*173 _0135_
*174 _0136_
*175 _0137_
*176 _0138_
*177 _0139_
*178 _0140_
*179 _0141_
*180 _0142_
*181 _0143_
*182 _0144_
*183 _0145_
*184 _0146_
*185 _0147_
*186 _0148_
*187 _0149_
*188 _0150_
*189 _0151_
*190 _0152_
*191 _0153_
*192 _0154_
*193 _0155_
*194 _0156_
*195 _0157_
*196 _0158_
*197 _0159_
*198 _0160_
*199 _0161_
*200 _0162_
*201 _0163_
*202 _0164_
*203 _0165_
*204 _0166_
*205 _0167_
*206 _0168_
*207 _0169_
*208 _0170_
*209 _0171_
*210 _0172_
*211 _0173_
*212 _0174_
*213 _0175_
*214 _0176_
*215 _0177_
*216 _0178_
*217 _0179_
*218 _0180_
*219 _0181_
*220 _0182_
*221 _0183_
*222 _0184_
*223 _0185_
*224 _0186_
*225 _0187_
*226 _0188_
*227 _0189_
*228 _0190_
*229 _0191_
*230 _0192_
*231 _0193_
*232 _0194_
*233 _0195_
*234 _0196_
*235 _0197_
*236 _0198_
*237 _0199_
*238 _0200_
*239 _0201_
*240 _0202_
*241 _0203_
*242 _0204_
*243 _0205_
*244 _0206_
*245 _0207_
*246 _0208_
*247 _0209_
*248 _0210_
*249 _0211_
*250 _0212_
*251 _0213_
*252 _0214_
*253 _0215_
*254 _0216_
*255 _0217_
*256 _0218_
*257 _0219_
*258 _0220_
*259 _0221_
*260 _0222_
*261 _0223_
*262 _0224_
*263 _0225_
*264 _0226_
*265 _0227_
*266 _0228_
*267 _0229_
*268 _0230_
*269 _0231_
*270 _0232_
*271 _0233_
*272 _0234_
*273 _0235_
*274 _0236_
*275 _0237_
*276 _0238_
*277 _0239_
*278 _0240_
*279 _0241_
*280 _0242_
*281 _0243_
*282 _0244_
*283 _0245_
*284 _0246_
*285 _0247_
*286 _0248_
*287 _0249_
*288 _0250_
*289 _0251_
*290 _0252_
*291 _0253_
*292 _0254_
*293 _0255_
*294 _0256_
*295 _0257_
*296 _0258_
*297 _0259_
*298 _0260_
*299 _0261_
*300 _0262_
*301 _0263_
*302 _0264_
*303 _0265_
*304 _0266_
*305 _0267_
*306 _0268_
*307 _0269_
*308 _0270_
*309 _0271_
*310 _0272_
*311 _0273_
*312 _0274_
*313 _0275_
*314 _0276_
*315 _0277_
*316 _0278_
*317 _0279_
*318 _0280_
*319 _0281_
*320 _0282_
*321 _0283_
*322 _0284_
*323 _0285_
*324 _0286_
*325 _0287_
*326 _0288_
*327 _0289_
*328 _0290_
*329 _0291_
*330 _0292_
*331 _0293_
*332 _0294_
*333 _0295_
*334 _0296_
*335 _0297_
*336 _0298_
*337 _0299_
*338 _0300_
*339 _0301_
*340 _0302_
*341 _0303_
*342 _0304_
*343 _0305_
*344 _0306_
*345 _0307_
*346 _0308_
*347 _0309_
*348 _0310_
*349 _0311_
*350 _0312_
*351 _0313_
*352 _0314_
*353 _0315_
*354 _0316_
*355 _0317_
*356 _0318_
*357 _0319_
*358 _0320_
*359 _0321_
*360 _0322_
*361 _0323_
*362 _0324_
*363 _0325_
*364 _0326_
*365 _0327_
*366 _0328_
*367 _0329_
*368 _0330_
*369 _0331_
*370 _0332_
*371 _0333_
*372 _0334_
*373 _0335_
*374 _0336_
*375 _0337_
*376 _0338_
*377 _0339_
*378 _0340_
*379 _0341_
*380 _0342_
*381 _0343_
*382 _0344_
*383 _0345_
*384 _0346_
*385 _0347_
*386 _0348_
*387 _0349_
*388 _0350_
*389 _0351_
*390 _0352_
*391 _0353_
*392 _0354_
*393 _0355_
*394 _0356_
*395 _0357_
*396 _0358_
*397 _0359_
*398 _0360_
*399 _0361_
*400 _0362_
*401 _0363_
*402 _0364_
*403 _0365_
*404 _0366_
*405 _0367_
*406 _0368_
*407 _0369_
*408 _0370_
*409 _0371_
*410 _0372_
*411 _0373_
*412 _0374_
*413 _0375_
*414 _0376_
*415 _0377_
*416 _0378_
*417 _0379_
*418 _0380_
*419 _0381_
*420 _0382_
*421 _0383_
*422 _0384_
*423 _0385_
*424 _0386_
*425 _0387_
*426 _0388_
*427 _0389_
*428 _0390_
*429 _0391_
*430 _0392_
*431 _0393_
*432 _0394_
*433 _0395_
*434 _0396_
*435 _0397_
*436 _0398_
*437 _0399_
*438 _0400_
*439 _0401_
*440 _0402_
*441 _0403_
*442 _0404_
*443 _0405_
*444 _0406_
*445 _0407_
*446 _0408_
*447 _0409_
*448 _0410_
*449 _0411_
*450 _0412_
*451 _0413_
*452 _0414_
*453 _0415_
*454 _0416_
*455 _0417_
*456 _0418_
*457 _0419_
*458 _0420_
*459 _0421_
*460 _0422_
*461 _0423_
*462 _0424_
*463 _0425_
*464 _0426_
*465 _0427_
*466 _0428_
*467 _0429_
*468 _0430_
*469 _0431_
*470 _0432_
*471 _0433_
*472 _0434_
*473 _0435_
*474 _0436_
*475 _0437_
*476 _0438_
*477 _0439_
*478 _0440_
*479 _0441_
*480 _0442_
*481 _0443_
*482 _0444_
*483 _0445_
*484 _0446_
*485 _0447_
*486 _0448_
*487 _0449_
*488 _0450_
*489 _0451_
*490 _0452_
*491 _0453_
*492 _0454_
*493 _0455_
*494 _0456_
*495 _0457_
*496 _0458_
*497 _0459_
*498 _0460_
*499 _0461_
*500 _0462_
*501 _0463_
*502 _0464_
*503 _0465_
*504 _0466_
*505 _0467_
*506 _0468_
*507 _0469_
*508 _0470_
*509 _0471_
*510 _0472_
*511 _0473_
*512 _0474_
*513 _0475_
*514 _0476_
*515 _0477_
*516 _0478_
*517 _0479_
*518 _0480_
*519 _0481_
*520 _0482_
*521 _0483_
*522 _0484_
*523 _0485_
*524 _0486_
*525 _0487_
*526 _0488_
*527 _0489_
*528 _0490_
*529 _0491_
*530 _0492_
*531 _0493_
*532 _0494_
*533 _0495_
*534 _0496_
*535 _0497_
*536 _0498_
*537 _0499_
*538 _0500_
*539 _0501_
*540 _0502_
*541 _0503_
*542 _0504_
*543 _0505_
*544 _0506_
*545 _0507_
*546 _0508_
*547 _0509_
*548 _0510_
*549 _0511_
*550 _0512_
*551 _0513_
*552 _0514_
*553 _0515_
*554 _0516_
*555 _0517_
*556 _0518_
*557 _0519_
*558 _0520_
*559 _0521_
*560 _0522_
*561 _0523_
*562 _0524_
*563 _0525_
*564 _0526_
*565 _0527_
*566 _0528_
*567 _0529_
*568 _0530_
*569 _0531_
*570 _0532_
*571 _0533_
*572 _0534_
*573 _0535_
*574 _0536_
*575 _0537_
*576 _0538_
*577 _0539_
*578 _0540_
*579 _0541_
*580 _0542_
*581 _0543_
*582 _0544_
*583 _0545_
*584 _0546_
*585 _0547_
*586 _0548_
*587 _0549_
*588 _0550_
*589 _0551_
*590 _0552_
*591 _0553_
*592 _0554_
*593 _0555_
*594 _0556_
*595 _0557_
*596 _0558_
*597 _0559_
*598 _0560_
*599 _0561_
*600 _0562_
*601 _0563_
*602 _0564_
*603 _0565_
*604 _0566_
*605 _0567_
*606 _0568_
*607 _0569_
*608 _0570_
*609 _0571_
*610 _0572_
*611 _0573_
*612 _0574_
*613 _0575_
*614 _0576_
*615 _0577_
*616 _0578_
*617 _0579_
*618 _0580_
*619 _0581_
*620 _0582_
*621 _0583_
*622 _0584_
*623 _0585_
*624 _0586_
*625 _0587_
*626 _0588_
*627 _0589_
*628 _0590_
*629 _0591_
*630 _0592_
*631 _0593_
*632 _0594_
*633 _0595_
*634 _0596_
*635 _0597_
*636 _0598_
*637 _0599_
*638 _0600_
*639 _0601_
*640 _0602_
*641 _0603_
*642 _0604_
*643 _0605_
*644 _0606_
*645 _0607_
*646 _0608_
*647 _0609_
*648 _0610_
*649 _0611_
*650 _0612_
*651 _0613_
*652 _0614_
*653 _0615_
*654 _0616_
*655 _0617_
*656 _0618_
*657 _0619_
*658 _0620_
*659 _0621_
*660 _0622_
*661 _0623_
*662 _0624_
*663 _0625_
*664 _0626_
*665 _0627_
*666 _0628_
*667 _0629_
*668 _0630_
*669 _0631_
*670 _0632_
*671 _0633_
*672 _0634_
*673 _0635_
*674 _0636_
*675 _0637_
*676 _0638_
*677 _0639_
*678 _0640_
*679 _0641_
*680 _0642_
*681 _0643_
*682 _0644_
*683 _0645_
*684 _0646_
*685 _0647_
*686 _0648_
*687 _0649_
*688 _0650_
*689 _0651_
*690 _0652_
*691 _0653_
*692 _0654_
*693 _0655_
*694 _0656_
*695 _0657_
*696 _0658_
*697 _0659_
*698 _0660_
*699 _0661_
*700 _0662_
*701 _0663_
*702 _0664_
*703 _0665_
*704 _0666_
*705 _0667_
*706 _0668_
*707 _0669_
*708 _0670_
*709 _0671_
*710 _0672_
*711 _0673_
*712 _0674_
*713 _0675_
*714 _0676_
*715 _0677_
*716 _0678_
*717 _0679_
*718 _0680_
*719 _0681_
*720 _0682_
*721 _0683_
*722 _0684_
*723 _0685_
*724 _0686_
*725 _0687_
*726 _0688_
*727 _0689_
*728 _0690_
*729 _0691_
*730 _0692_
*731 _0693_
*732 _0694_
*733 _0695_
*734 _0696_
*735 _0697_
*736 _0698_
*737 _0699_
*738 _0700_
*739 _0701_
*740 _0702_
*741 _0703_
*742 _0704_
*743 _0705_
*744 _0706_
*745 _0707_
*746 _0708_
*747 _0709_
*748 _0710_
*749 _0711_
*750 _0712_
*751 _0713_
*752 _0714_
*753 _0715_
*754 _0716_
*755 _0717_
*756 _0718_
*757 _0719_
*758 _0720_
*759 _0721_
*760 _0722_
*761 _0723_
*762 _0724_
*763 _0725_
*764 _0726_
*765 _0727_
*766 _0728_
*767 _0729_
*768 _0730_
*769 _0731_
*770 _0732_
*771 _0733_
*772 _0734_
*773 _0735_
*774 _0736_
*775 _0737_
*776 _0738_
*777 _0739_
*778 _0740_
*779 _0741_
*780 _0742_
*781 _0743_
*782 _0744_
*783 _0745_
*784 _0746_
*785 _0747_
*786 _0748_
*787 _0749_
*788 _0750_
*789 _0751_
*790 _0752_
*791 _0753_
*792 _0754_
*793 _0755_
*794 _0756_
*795 _0757_
*796 _0758_
*797 _0759_
*798 _0760_
*799 _0761_
*800 _0762_
*801 _0763_
*802 _0764_
*803 _0765_
*804 _0766_
*805 _0767_
*806 _0768_
*807 _0769_
*808 _0770_
*809 _0771_
*810 _0772_
*811 _0773_
*812 _0774_
*813 _0775_
*814 _0776_
*815 _0777_
*816 _0778_
*817 _0779_
*818 _0780_
*819 _0781_
*820 _0782_
*821 _0783_
*822 _0784_
*823 _0785_
*824 _0786_
*825 _0787_
*826 _0788_
*827 _0789_
*828 _0790_
*829 _0791_
*830 _0792_
*831 _0793_
*832 _0794_
*833 _0795_
*834 _0796_
*835 _0797_
*836 _0798_
*837 _0799_
*838 _0800_
*839 _0801_
*840 _0802_
*841 _0803_
*842 _0804_
*843 _0805_
*844 _0806_
*845 _0807_
*846 _0808_
*847 _0809_
*848 _0810_
*849 _0811_
*850 _0812_
*851 _0813_
*852 _0814_
*853 _0815_
*854 _0816_
*855 _0817_
*856 _0818_
*857 _0819_
*858 _0820_
*859 _0821_
*860 _0822_
*861 _0823_
*862 _0824_
*863 _0825_
*864 _0826_
*865 _0827_
*866 _0828_
*867 _0829_
*868 _0830_
*869 _0831_
*870 _0832_
*871 _0833_
*872 _0834_
*873 _0835_
*874 _0836_
*875 _0837_
*876 _0838_
*877 _0839_
*878 _0840_
*879 _0841_
*880 _0842_
*881 _0843_
*882 _0844_
*883 _0845_
*884 _0846_
*885 _0847_
*886 _0848_
*887 _0849_
*888 _0850_
*889 _0851_
*890 _0852_
*891 _0853_
*892 _0854_
*893 _0855_
*894 _0856_
*895 _0857_
*896 _0858_
*897 _0859_
*898 _0860_
*899 _0861_
*900 _0862_
*901 _0863_
*902 _0864_
*903 _0865_
*904 _0866_
*905 _0867_
*906 _0868_
*907 _0869_
*908 _0870_
*909 _0871_
*910 _0872_
*911 _0873_
*912 _0874_
*913 _0875_
*914 _0876_
*915 _0877_
*916 _0878_
*917 _0879_
*918 _0880_
*919 _0881_
*920 _0882_
*921 _0883_
*922 _0884_
*923 _0885_
*924 _0886_
*925 _0887_
*926 _0888_
*927 _0889_
*928 _0890_
*929 _0891_
*930 _0892_
*931 _0893_
*932 _0894_
*933 _0895_
*934 _0896_
*935 _0897_
*936 _0898_
*937 _0899_
*938 _0900_
*939 _0901_
*940 _0902_
*941 _0903_
*942 _0904_
*943 _0905_
*944 _0906_
*945 _0907_
*946 _0908_
*947 _0909_
*948 _0910_
*949 _0911_
*950 _0912_
*951 _0913_
*952 _0914_
*953 _0915_
*954 _0916_
*955 _0917_
*956 _0918_
*957 _0919_
*958 _0920_
*959 _0921_
*960 _0922_
*961 _0923_
*962 _0924_
*963 _0925_
*964 _0926_
*965 _0927_
*966 _0928_
*967 _0929_
*968 _0930_
*969 _0931_
*970 _0932_
*971 _0933_
*972 _0934_
*973 _0935_
*974 _0936_
*975 _0937_
*976 _0938_
*977 _0939_
*978 _0940_
*979 _0941_
*980 _0942_
*981 _0943_
*982 _0944_
*983 _0945_
*984 _0946_
*985 addr_offset1\[1\]
*986 addr_offset1\[2\]
*987 addr_offset1\[3\]
*988 addr_offset1\[4\]
*989 addr_offset1\[5\]
*990 addr_offset1\[6\]
*991 addr_offset1\[7\]
*992 addr_offset1\[8\]
*993 addr_saved0\[10\]
*994 addr_saved0\[11\]
*995 addr_saved0\[12\]
*996 addr_saved0\[13\]
*997 addr_saved0\[14\]
*998 addr_saved0\[15\]
*999 addr_saved0\[16\]
*1000 addr_saved0\[17\]
*1001 addr_saved0\[18\]
*1002 addr_saved0\[19\]
*1003 addr_saved0\[1\]
*1004 addr_saved0\[20\]
*1005 addr_saved0\[21\]
*1006 addr_saved0\[22\]
*1007 addr_saved0\[23\]
*1008 addr_saved0\[2\]
*1009 addr_saved0\[3\]
*1010 addr_saved0\[4\]
*1011 addr_saved0\[5\]
*1012 addr_saved0\[6\]
*1013 addr_saved0\[7\]
*1014 addr_saved0\[8\]
*1015 addr_saved0\[9\]
*1016 clknet_0_clk
*1017 clknet_1_0__leaf_clk
*1018 clknet_1_1__leaf_clk
*1019 clknet_leaf_0_clk
*1020 clknet_leaf_10_clk
*1021 clknet_leaf_11_clk
*1022 clknet_leaf_12_clk
*1023 clknet_leaf_1_clk
*1024 clknet_leaf_2_clk
*1025 clknet_leaf_3_clk
*1026 clknet_leaf_4_clk
*1027 clknet_leaf_5_clk
*1028 clknet_leaf_6_clk
*1029 clknet_leaf_7_clk
*1030 clknet_leaf_8_clk
*1031 clknet_leaf_9_clk
*1032 i_spi\.addr\[10\]
*1033 i_spi\.addr\[11\]
*1034 i_spi\.addr\[12\]
*1035 i_spi\.addr\[13\]
*1036 i_spi\.addr\[14\]
*1037 i_spi\.addr\[15\]
*1038 i_spi\.addr\[16\]
*1039 i_spi\.addr\[17\]
*1040 i_spi\.addr\[18\]
*1041 i_spi\.addr\[19\]
*1042 i_spi\.addr\[1\]
*1043 i_spi\.addr\[20\]
*1044 i_spi\.addr\[21\]
*1045 i_spi\.addr\[22\]
*1046 i_spi\.addr\[23\]
*1047 i_spi\.addr\[2\]
*1048 i_spi\.addr\[3\]
*1049 i_spi\.addr\[4\]
*1050 i_spi\.addr\[5\]
*1051 i_spi\.addr\[6\]
*1052 i_spi\.addr\[7\]
*1053 i_spi\.addr\[8\]
*1054 i_spi\.addr\[9\]
*1055 i_spi\.addr_in\[10\]
*1056 i_spi\.addr_in\[11\]
*1057 i_spi\.addr_in\[12\]
*1058 i_spi\.addr_in\[13\]
*1059 i_spi\.addr_in\[14\]
*1060 i_spi\.addr_in\[15\]
*1061 i_spi\.addr_in\[16\]
*1062 i_spi\.addr_in\[17\]
*1063 i_spi\.addr_in\[18\]
*1064 i_spi\.addr_in\[19\]
*1065 i_spi\.addr_in\[1\]
*1066 i_spi\.addr_in\[20\]
*1067 i_spi\.addr_in\[21\]
*1068 i_spi\.addr_in\[22\]
*1069 i_spi\.addr_in\[23\]
*1070 i_spi\.addr_in\[2\]
*1071 i_spi\.addr_in\[3\]
*1072 i_spi\.addr_in\[4\]
*1073 i_spi\.addr_in\[5\]
*1074 i_spi\.addr_in\[6\]
*1075 i_spi\.addr_in\[7\]
*1076 i_spi\.addr_in\[8\]
*1077 i_spi\.addr_in\[9\]
*1078 i_spi\.bits_remaining\[0\]
*1079 i_spi\.bits_remaining\[1\]
*1080 i_spi\.bits_remaining\[2\]
*1081 i_spi\.bits_remaining\[3\]
*1082 i_spi\.bits_remaining\[4\]
*1083 i_spi\.data\[0\]
*1084 i_spi\.data\[10\]
*1085 i_spi\.data\[11\]
*1086 i_spi\.data\[12\]
*1087 i_spi\.data\[13\]
*1088 i_spi\.data\[14\]
*1089 i_spi\.data\[15\]
*1090 i_spi\.data\[1\]
*1091 i_spi\.data\[2\]
*1092 i_spi\.data\[3\]
*1093 i_spi\.data\[4\]
*1094 i_spi\.data\[5\]
*1095 i_spi\.data\[6\]
*1096 i_spi\.data\[7\]
*1097 i_spi\.data\[8\]
*1098 i_spi\.data\[9\]
*1099 i_spi\.fsm_state\[0\]
*1100 i_spi\.fsm_state\[1\]
*1101 i_spi\.fsm_state\[2\]
*1102 i_spi\.spi_clk_out
*1103 i_spi\.spi_data_oe\[0\]
*1104 i_spi\.spi_miso_buf_n\[0\]
*1105 i_spi\.spi_miso_buf_n\[1\]
*1106 i_spi\.spi_miso_buf_n\[2\]
*1107 i_spi\.spi_miso_buf_n\[3\]
*1108 i_spi\.spi_miso_buf_n\[4\]
*1109 i_spi\.spi_miso_buf_n\[5\]
*1110 i_spi\.spi_miso_buf_n\[6\]
*1111 i_spi\.spi_miso_buf_n\[7\]
*1112 i_spi\.spi_miso_buf_p\[0\]
*1113 i_spi\.spi_miso_buf_p\[1\]
*1114 i_spi\.spi_miso_buf_p\[2\]
*1115 i_spi\.spi_miso_buf_p\[3\]
*1116 i_spi\.spi_miso_buf_p\[4\]
*1117 i_spi\.spi_miso_buf_p\[5\]
*1118 i_spi\.spi_miso_buf_p\[6\]
*1119 i_spi\.spi_miso_buf_p\[7\]
*1120 i_spi\.spi_mosi
*1121 i_spi\.spi_select
*1122 i_spi_buf\.empty
*1123 i_spi_buf\.fifo\[0\]
*1124 i_spi_buf\.fifo\[10\]
*1125 i_spi_buf\.fifo\[11\]
*1126 i_spi_buf\.fifo\[12\]
*1127 i_spi_buf\.fifo\[13\]
*1128 i_spi_buf\.fifo\[14\]
*1129 i_spi_buf\.fifo\[15\]
*1130 i_spi_buf\.fifo\[1\]
*1131 i_spi_buf\.fifo\[2\]
*1132 i_spi_buf\.fifo\[3\]
*1133 i_spi_buf\.fifo\[4\]
*1134 i_spi_buf\.fifo\[5\]
*1135 i_spi_buf\.fifo\[6\]
*1136 i_spi_buf\.fifo\[7\]
*1137 i_spi_buf\.fifo\[8\]
*1138 i_spi_buf\.fifo\[9\]
*1139 i_spi_buf\.prev_empty
*1140 i_spi_buf0\.fifo\[0\]
*1141 i_spi_buf0\.fifo\[10\]
*1142 i_spi_buf0\.fifo\[11\]
*1143 i_spi_buf0\.fifo\[12\]
*1144 i_spi_buf0\.fifo\[13\]
*1145 i_spi_buf0\.fifo\[14\]
*1146 i_spi_buf0\.fifo\[15\]
*1147 i_spi_buf0\.fifo\[1\]
*1148 i_spi_buf0\.fifo\[2\]
*1149 i_spi_buf0\.fifo\[3\]
*1150 i_spi_buf0\.fifo\[4\]
*1151 i_spi_buf0\.fifo\[5\]
*1152 i_spi_buf0\.fifo\[6\]
*1153 i_spi_buf0\.fifo\[7\]
*1154 i_spi_buf0\.fifo\[8\]
*1155 i_spi_buf0\.fifo\[9\]
*1156 i_vga\.hsync
*1157 i_vga\.timing_hor\.counter\[0\]
*1158 i_vga\.timing_hor\.counter\[10\]
*1159 i_vga\.timing_hor\.counter\[1\]
*1160 i_vga\.timing_hor\.counter\[2\]
*1161 i_vga\.timing_hor\.counter\[3\]
*1162 i_vga\.timing_hor\.counter\[4\]
*1163 i_vga\.timing_hor\.counter\[5\]
*1164 i_vga\.timing_hor\.counter\[6\]
*1165 i_vga\.timing_hor\.counter\[7\]
*1166 i_vga\.timing_hor\.counter\[8\]
*1167 i_vga\.timing_hor\.counter\[9\]
*1168 i_vga\.timing_ver\.blank
*1169 i_vga\.timing_ver\.counter\[0\]
*1170 i_vga\.timing_ver\.counter\[10\]
*1171 i_vga\.timing_ver\.counter\[1\]
*1172 i_vga\.timing_ver\.counter\[2\]
*1173 i_vga\.timing_ver\.counter\[3\]
*1174 i_vga\.timing_ver\.counter\[4\]
*1175 i_vga\.timing_ver\.counter\[5\]
*1176 i_vga\.timing_ver\.counter\[6\]
*1177 i_vga\.timing_ver\.counter\[7\]
*1178 i_vga\.timing_ver\.counter\[8\]
*1179 i_vga\.timing_ver\.counter\[9\]
*1180 i_vga\.timing_ver\.sync
*1181 i_vga\.vblank
*1182 i_video\.clear_addr
*1183 i_video\.colour\[0\]
*1184 i_video\.colour\[1\]
*1185 i_video\.colour\[2\]
*1186 i_video\.colour\[3\]
*1187 i_video\.colour\[4\]
*1188 i_video\.colour\[5\]
*1189 i_video\.frame_counter
*1190 i_video\.read_next_r
*1191 i_video\.repeat_count\[0\]
*1192 i_video\.repeat_count\[1\]
*1193 i_video\.repeat_count\[2\]
*1194 i_video\.repeat_count\[3\]
*1195 i_video\.repeat_count\[4\]
*1196 i_video\.repeat_count\[5\]
*1197 i_video\.repeat_count\[6\]
*1198 i_video\.repeat_count\[7\]
*1199 i_video\.repeat_count\[8\]
*1200 i_video\.run_length\[0\]
*1201 i_video\.run_length\[1\]
*1202 i_video\.run_length\[2\]
*1203 i_video\.run_length\[3\]
*1204 i_video\.run_length\[4\]
*1205 i_video\.run_length\[5\]
*1206 i_video\.run_length\[6\]
*1207 i_video\.run_length\[7\]
*1208 i_video\.run_length\[8\]
*1209 i_video\.run_length\[9\]
*1210 i_video\.start
*1211 net1
*1212 net10
*1213 net100
*1214 net101
*1215 net102
*1216 net103
*1217 net104
*1218 net105
*1219 net106
*1220 net107
*1221 net108
*1222 net109
*1223 net11
*1224 net110
*1225 net111
*1226 net112
*1227 net113
*1228 net114
*1229 net115
*1230 net116
*1231 net117
*1232 net118
*1233 net119
*1234 net12
*1235 net120
*1236 net121
*1237 net122
*1238 net123
*1239 net124
*1240 net125
*1241 net126
*1242 net127
*1243 net128
*1244 net129
*1245 net13
*1246 net130
*1247 net131
*1248 net132
*1249 net133
*1250 net134
*1251 net135
*1252 net136
*1253 net137
*1254 net138
*1255 net139
*1256 net140
*1257 net141
*1258 net142
*1259 net143
*1260 net144
*1261 net145
*1262 net146
*1263 net147
*1264 net148
*1265 net149
*1266 net150
*1267 net151
*1268 net152
*1269 net153
*1270 net154
*1271 net155
*1272 net156
*1273 net157
*1274 net158
*1275 net159
*1276 net160
*1277 net161
*1278 net162
*1279 net163
*1280 net164
*1281 net165
*1282 net166
*1283 net167
*1284 net168
*1285 net169
*1286 net170
*1287 net171
*1288 net172
*1289 net173
*1290 net174
*1291 net175
*1292 net176
*1293 net177
*1294 net178
*1295 net179
*1296 net180
*1297 net181
*1298 net182
*1299 net183
*1300 net184
*1301 net185
*1302 net186
*1303 net2
*1304 net22
*1305 net23
*1306 net24
*1307 net25
*1308 net26
*1309 net27
*1310 net28
*1311 net29
*1312 net3
*1313 net30
*1314 net31
*1315 net32
*1316 net33
*1317 net34
*1318 net35
*1319 net36
*1320 net37
*1321 net38
*1322 net39
*1323 net4
*1324 net40
*1325 net41
*1326 net42
*1327 net43
*1328 net44
*1329 net45
*1330 net46
*1331 net47
*1332 net48
*1333 net49
*1334 net5
*1335 net50
*1336 net51
*1337 net52
*1338 net53
*1339 net54
*1340 net55
*1341 net56
*1342 net57
*1343 net58
*1344 net59
*1345 net6
*1346 net60
*1347 net61
*1348 net62
*1349 net63
*1350 net64
*1351 net65
*1352 net66
*1353 net67
*1354 net68
*1355 net69
*1356 net7
*1357 net70
*1358 net71
*1359 net72
*1360 net73
*1361 net74
*1362 net75
*1363 net76
*1364 net77
*1365 net78
*1366 net79
*1367 net8
*1368 net80
*1369 net81
*1370 net82
*1371 net83
*1372 net84
*1373 net85
*1374 net86
*1375 net87
*1376 net88
*1377 net89
*1378 net9
*1379 net90
*1380 net91
*1381 net92
*1382 net93
*1383 net94
*1384 net95
*1385 net96
*1386 net97
*1387 net98
*1388 net99
*1389 spi_started
*1390 FILLER_0_0_113
*1391 FILLER_0_0_121
*1392 FILLER_0_0_15
*1393 FILLER_0_0_162
*1394 FILLER_0_0_169
*1395 FILLER_0_0_173
*1396 FILLER_0_0_195
*1397 FILLER_0_0_205
*1398 FILLER_0_0_212
*1399 FILLER_0_0_222
*1400 FILLER_0_0_241
*1401 FILLER_0_0_250
*1402 FILLER_0_0_269
*1403 FILLER_0_0_27
*1404 FILLER_0_0_281
*1405 FILLER_0_0_285
*1406 FILLER_0_0_29
*1407 FILLER_0_0_290
*1408 FILLER_0_0_3
*1409 FILLER_0_0_302
*1410 FILLER_0_0_309
*1411 FILLER_0_0_321
*1412 FILLER_0_0_333
*1413 FILLER_0_0_41
*1414 FILLER_0_0_53
*1415 FILLER_0_0_73
*1416 FILLER_0_0_83
*1417 FILLER_0_0_85
*1418 FILLER_0_0_95
*1419 FILLER_0_10_101
*1420 FILLER_0_10_112
*1421 FILLER_0_10_13
*1422 FILLER_0_10_139
*1423 FILLER_0_10_147
*1424 FILLER_0_10_161
*1425 FILLER_0_10_184
*1426 FILLER_0_10_206
*1427 FILLER_0_10_235
*1428 FILLER_0_10_243
*1429 FILLER_0_10_25
*1430 FILLER_0_10_253
*1431 FILLER_0_10_270
*1432 FILLER_0_10_287
*1433 FILLER_0_10_29
*1434 FILLER_0_10_3
*1435 FILLER_0_10_332
*1436 FILLER_0_10_37
*1437 FILLER_0_10_41
*1438 FILLER_0_10_64
*1439 FILLER_0_10_75
*1440 FILLER_0_10_9
*1441 FILLER_0_11_117
*1442 FILLER_0_11_121
*1443 FILLER_0_11_130
*1444 FILLER_0_11_143
*1445 FILLER_0_11_164
*1446 FILLER_0_11_174
*1447 FILLER_0_11_183
*1448 FILLER_0_11_21
*1449 FILLER_0_11_216
*1450 FILLER_0_11_222
*1451 FILLER_0_11_253
*1452 FILLER_0_11_259
*1453 FILLER_0_11_279
*1454 FILLER_0_11_296
*1455 FILLER_0_11_3
*1456 FILLER_0_11_314
*1457 FILLER_0_11_326
*1458 FILLER_0_11_39
*1459 FILLER_0_11_66
*1460 FILLER_0_11_70
*1461 FILLER_0_11_75
*1462 FILLER_0_11_95
*1463 FILLER_0_12_100
*1464 FILLER_0_12_106
*1465 FILLER_0_12_110
*1466 FILLER_0_12_116
*1467 FILLER_0_12_137
*1468 FILLER_0_12_166
*1469 FILLER_0_12_185
*1470 FILLER_0_12_193
*1471 FILLER_0_12_212
*1472 FILLER_0_12_216
*1473 FILLER_0_12_230
*1474 FILLER_0_12_234
*1475 FILLER_0_12_288
*1476 FILLER_0_12_3
*1477 FILLER_0_12_306
*1478 FILLER_0_12_333
*1479 FILLER_0_12_70
*1480 FILLER_0_12_81
*1481 FILLER_0_12_85
*1482 FILLER_0_12_90
*1483 FILLER_0_13_129
*1484 FILLER_0_13_15
*1485 FILLER_0_13_167
*1486 FILLER_0_13_176
*1487 FILLER_0_13_185
*1488 FILLER_0_13_215
*1489 FILLER_0_13_219
*1490 FILLER_0_13_223
*1491 FILLER_0_13_232
*1492 FILLER_0_13_240
*1493 FILLER_0_13_246
*1494 FILLER_0_13_253
*1495 FILLER_0_13_3
*1496 FILLER_0_13_302
*1497 FILLER_0_13_40
*1498 FILLER_0_13_64
*1499 FILLER_0_13_81
*1500 FILLER_0_13_87
*1501 FILLER_0_14_101
*1502 FILLER_0_14_112
*1503 FILLER_0_14_124
*1504 FILLER_0_14_134
*1505 FILLER_0_14_147
*1506 FILLER_0_14_156
*1507 FILLER_0_14_166
*1508 FILLER_0_14_212
*1509 FILLER_0_14_22
*1510 FILLER_0_14_222
*1511 FILLER_0_14_235
*1512 FILLER_0_14_264
*1513 FILLER_0_14_332
*1514 FILLER_0_14_34
*1515 FILLER_0_14_42
*1516 FILLER_0_14_57
*1517 FILLER_0_14_73
*1518 FILLER_0_15_113
*1519 FILLER_0_15_13
*1520 FILLER_0_15_139
*1521 FILLER_0_15_166
*1522 FILLER_0_15_169
*1523 FILLER_0_15_183
*1524 FILLER_0_15_216
*1525 FILLER_0_15_225
*1526 FILLER_0_15_243
*1527 FILLER_0_15_258
*1528 FILLER_0_15_289
*1529 FILLER_0_15_3
*1530 FILLER_0_15_325
*1531 FILLER_0_15_51
*1532 FILLER_0_15_55
*1533 FILLER_0_15_62
*1534 FILLER_0_16_115
*1535 FILLER_0_16_135
*1536 FILLER_0_16_139
*1537 FILLER_0_16_141
*1538 FILLER_0_16_145
*1539 FILLER_0_16_152
*1540 FILLER_0_16_179
*1541 FILLER_0_16_205
*1542 FILLER_0_16_250
*1543 FILLER_0_16_26
*1544 FILLER_0_16_261
*1545 FILLER_0_16_280
*1546 FILLER_0_16_307
*1547 FILLER_0_16_317
*1548 FILLER_0_16_42
*1549 FILLER_0_16_49
*1550 FILLER_0_16_53
*1551 FILLER_0_16_70
*1552 FILLER_0_16_81
*1553 FILLER_0_16_85
*1554 FILLER_0_17_106
*1555 FILLER_0_17_14
*1556 FILLER_0_17_150
*1557 FILLER_0_17_158
*1558 FILLER_0_17_169
*1559 FILLER_0_17_181
*1560 FILLER_0_17_187
*1561 FILLER_0_17_219
*1562 FILLER_0_17_223
*1563 FILLER_0_17_245
*1564 FILLER_0_17_263
*1565 FILLER_0_17_281
*1566 FILLER_0_17_3
*1567 FILLER_0_17_30
*1568 FILLER_0_17_334
*1569 FILLER_0_17_60
*1570 FILLER_0_17_68
*1571 FILLER_0_17_79
*1572 FILLER_0_18_101
*1573 FILLER_0_18_111
*1574 FILLER_0_18_126
*1575 FILLER_0_18_157
*1576 FILLER_0_18_201
*1577 FILLER_0_18_21
*1578 FILLER_0_18_250
*1579 FILLER_0_18_283
*1580 FILLER_0_18_3
*1581 FILLER_0_18_306
*1582 FILLER_0_18_318
*1583 FILLER_0_18_53
*1584 FILLER_0_18_80
*1585 FILLER_0_18_85
*1586 FILLER_0_19_10
*1587 FILLER_0_19_110
*1588 FILLER_0_19_113
*1589 FILLER_0_19_126
*1590 FILLER_0_19_14
*1591 FILLER_0_19_140
*1592 FILLER_0_19_158
*1593 FILLER_0_19_189
*1594 FILLER_0_19_195
*1595 FILLER_0_19_216
*1596 FILLER_0_19_241
*1597 FILLER_0_19_26
*1598 FILLER_0_19_279
*1599 FILLER_0_19_284
*1600 FILLER_0_19_295
*1601 FILLER_0_19_3
*1602 FILLER_0_19_314
*1603 FILLER_0_19_318
*1604 FILLER_0_19_331
*1605 FILLER_0_19_35
*1606 FILLER_0_19_67
*1607 FILLER_0_19_71
*1608 FILLER_0_19_88
*1609 FILLER_0_1_100
*1610 FILLER_0_1_110
*1611 FILLER_0_1_15
*1612 FILLER_0_1_150
*1613 FILLER_0_1_154
*1614 FILLER_0_1_169
*1615 FILLER_0_1_190
*1616 FILLER_0_1_233
*1617 FILLER_0_1_27
*1618 FILLER_0_1_275
*1619 FILLER_0_1_279
*1620 FILLER_0_1_297
*1621 FILLER_0_1_3
*1622 FILLER_0_1_305
*1623 FILLER_0_1_312
*1624 FILLER_0_1_318
*1625 FILLER_0_1_325
*1626 FILLER_0_1_333
*1627 FILLER_0_1_39
*1628 FILLER_0_1_60
*1629 FILLER_0_1_92
*1630 FILLER_0_20_113
*1631 FILLER_0_20_139
*1632 FILLER_0_20_156
*1633 FILLER_0_20_197
*1634 FILLER_0_20_223
*1635 FILLER_0_20_25
*1636 FILLER_0_20_29
*1637 FILLER_0_20_290
*1638 FILLER_0_20_3
*1639 FILLER_0_20_317
*1640 FILLER_0_20_334
*1641 FILLER_0_20_39
*1642 FILLER_0_20_62
*1643 FILLER_0_20_85
*1644 FILLER_0_21_113
*1645 FILLER_0_21_12
*1646 FILLER_0_21_134
*1647 FILLER_0_21_142
*1648 FILLER_0_21_150
*1649 FILLER_0_21_156
*1650 FILLER_0_21_167
*1651 FILLER_0_21_169
*1652 FILLER_0_21_19
*1653 FILLER_0_21_196
*1654 FILLER_0_21_204
*1655 FILLER_0_21_216
*1656 FILLER_0_21_25
*1657 FILLER_0_21_297
*1658 FILLER_0_21_3
*1659 FILLER_0_21_316
*1660 FILLER_0_21_39
*1661 FILLER_0_21_54
*1662 FILLER_0_21_73
*1663 FILLER_0_21_79
*1664 FILLER_0_21_87
*1665 FILLER_0_22_104
*1666 FILLER_0_22_138
*1667 FILLER_0_22_144
*1668 FILLER_0_22_156
*1669 FILLER_0_22_170
*1670 FILLER_0_22_178
*1671 FILLER_0_22_187
*1672 FILLER_0_22_195
*1673 FILLER_0_22_200
*1674 FILLER_0_22_232
*1675 FILLER_0_22_26
*1676 FILLER_0_22_278
*1677 FILLER_0_22_29
*1678 FILLER_0_22_298
*1679 FILLER_0_22_3
*1680 FILLER_0_22_333
*1681 FILLER_0_22_50
*1682 FILLER_0_22_85
*1683 FILLER_0_23_106
*1684 FILLER_0_23_113
*1685 FILLER_0_23_124
*1686 FILLER_0_23_146
*1687 FILLER_0_23_154
*1688 FILLER_0_23_19
*1689 FILLER_0_23_222
*1690 FILLER_0_23_225
*1691 FILLER_0_23_23
*1692 FILLER_0_23_240
*1693 FILLER_0_23_278
*1694 FILLER_0_23_29
*1695 FILLER_0_23_3
*1696 FILLER_0_23_306
*1697 FILLER_0_23_40
*1698 FILLER_0_23_57
*1699 FILLER_0_23_68
*1700 FILLER_0_23_74
*1701 FILLER_0_23_78
*1702 FILLER_0_24_123
*1703 FILLER_0_24_131
*1704 FILLER_0_24_139
*1705 FILLER_0_24_141
*1706 FILLER_0_24_147
*1707 FILLER_0_24_159
*1708 FILLER_0_24_18
*1709 FILLER_0_24_195
*1710 FILLER_0_24_206
*1711 FILLER_0_24_218
*1712 FILLER_0_24_265
*1713 FILLER_0_24_3
*1714 FILLER_0_24_307
*1715 FILLER_0_24_330
*1716 FILLER_0_24_334
*1717 FILLER_0_24_47
*1718 FILLER_0_24_57
*1719 FILLER_0_24_77
*1720 FILLER_0_24_83
*1721 FILLER_0_24_9
*1722 FILLER_0_24_96
*1723 FILLER_0_25_110
*1724 FILLER_0_25_167
*1725 FILLER_0_25_19
*1726 FILLER_0_25_199
*1727 FILLER_0_25_210
*1728 FILLER_0_25_232
*1729 FILLER_0_25_261
*1730 FILLER_0_25_279
*1731 FILLER_0_25_281
*1732 FILLER_0_25_29
*1733 FILLER_0_25_3
*1734 FILLER_0_25_333
*1735 FILLER_0_25_64
*1736 FILLER_0_25_70
*1737 FILLER_0_25_77
*1738 FILLER_0_25_81
*1739 FILLER_0_25_99
*1740 FILLER_0_26_116
*1741 FILLER_0_26_123
*1742 FILLER_0_26_127
*1743 FILLER_0_26_133
*1744 FILLER_0_26_137
*1745 FILLER_0_26_161
*1746 FILLER_0_26_183
*1747 FILLER_0_26_189
*1748 FILLER_0_26_197
*1749 FILLER_0_26_224
*1750 FILLER_0_26_24
*1751 FILLER_0_26_241
*1752 FILLER_0_26_284
*1753 FILLER_0_26_297
*1754 FILLER_0_26_3
*1755 FILLER_0_26_55
*1756 FILLER_0_26_91
*1757 FILLER_0_26_97
*1758 FILLER_0_27_110
*1759 FILLER_0_27_113
*1760 FILLER_0_27_13
*1761 FILLER_0_27_132
*1762 FILLER_0_27_151
*1763 FILLER_0_27_162
*1764 FILLER_0_27_182
*1765 FILLER_0_27_203
*1766 FILLER_0_27_260
*1767 FILLER_0_27_297
*1768 FILLER_0_27_3
*1769 FILLER_0_27_315
*1770 FILLER_0_27_37
*1771 FILLER_0_27_46
*1772 FILLER_0_27_54
*1773 FILLER_0_27_57
*1774 FILLER_0_27_69
*1775 FILLER_0_27_77
*1776 FILLER_0_27_95
*1777 FILLER_0_28_120
*1778 FILLER_0_28_124
*1779 FILLER_0_28_141
*1780 FILLER_0_28_15
*1781 FILLER_0_28_166
*1782 FILLER_0_28_174
*1783 FILLER_0_28_190
*1784 FILLER_0_28_203
*1785 FILLER_0_28_29
*1786 FILLER_0_28_297
*1787 FILLER_0_28_3
*1788 FILLER_0_28_333
*1789 FILLER_0_28_54
*1790 FILLER_0_28_85
*1791 FILLER_0_28_97
*1792 FILLER_0_29_104
*1793 FILLER_0_29_121
*1794 FILLER_0_29_181
*1795 FILLER_0_29_195
*1796 FILLER_0_29_203
*1797 FILLER_0_29_215
*1798 FILLER_0_29_263
*1799 FILLER_0_29_281
*1800 FILLER_0_29_29
*1801 FILLER_0_29_46
*1802 FILLER_0_29_54
*1803 FILLER_0_29_69
*1804 FILLER_0_29_81
*1805 FILLER_0_29_87
*1806 FILLER_0_2_117
*1807 FILLER_0_2_130
*1808 FILLER_0_2_138
*1809 FILLER_0_2_141
*1810 FILLER_0_2_15
*1811 FILLER_0_2_158
*1812 FILLER_0_2_168
*1813 FILLER_0_2_184
*1814 FILLER_0_2_195
*1815 FILLER_0_2_204
*1816 FILLER_0_2_215
*1817 FILLER_0_2_242
*1818 FILLER_0_2_266
*1819 FILLER_0_2_27
*1820 FILLER_0_2_270
*1821 FILLER_0_2_278
*1822 FILLER_0_2_287
*1823 FILLER_0_2_29
*1824 FILLER_0_2_3
*1825 FILLER_0_2_306
*1826 FILLER_0_2_37
*1827 FILLER_0_2_82