*SPEF "ieee 1481-1999"
*DESIGN "tt_um_MichaelBell_rle_vga"
*DATE "19:07:25 Sunday May 12, 2024"
*VENDOR "The OpenROAD Project"
*PROGRAM "OpenROAD"
*VERSION "da0053d7b0014ab9c87ea148875ff6c2a0f9b658"
*DESIGN_FLOW "NAME_SCOPE LOCAL" "PIN_CAP NONE"
*DIVIDER /
*DELIMITER :
*BUS_DELIMITER []
*T_UNIT 1 NS
*C_UNIT 1 PF
*R_UNIT 1 OHM
*L_UNIT 1 HENRY

*NAME_MAP
*3 clk
*4 ena
*5 rst_n
*6 ui_in[0]
*7 ui_in[1]
*8 ui_in[2]
*9 ui_in[3]
*10 ui_in[4]
*11 ui_in[5]
*12 ui_in[6]
*13 ui_in[7]
*14 uio_in[0]
*15 uio_in[1]
*16 uio_in[2]
*17 uio_in[3]
*18 uio_in[4]
*19 uio_in[5]
*20 uio_in[6]
*21 uio_in[7]
*22 uio_oe[0]
*23 uio_oe[1]
*24 net9
*25 uio_oe[3]
*26 net10
*27 net11
*28 uio_oe[6]
*29 uio_oe[7]
*30 uio_out[0]
*31 uio_out[1]
*32 net12
*33 uio_out[3]
*34 net13
*35 net14
*36 net15
*37 net16
*38 uo_out[0]
*39 uo_out[1]
*40 uo_out[2]
*41 uo_out[3]
*42 uo_out[4]
*43 uo_out[5]
*44 uo_out[6]
*45 uo_out[7]
*46 _0000_
*47 _0001_
*48 _0014_
*49 _0015_
*50 _0016_
*51 _0017_
*52 _0018_
*53 _0019_
*54 _0020_
*55 _0021_
*56 _0022_
*57 _0023_
*58 _0024_
*59 _0025_
*60 _0026_
*61 _0027_
*62 _0028_
*63 _0029_
*64 _0030_
*65 _0031_
*66 _0032_
*67 _0033_
*68 _0034_
*69 _0035_
*70 _0036_
*71 _0037_
*72 _0038_
*73 _0039_
*74 _0040_
*75 _0041_
*76 _0042_
*77 _0043_
*78 _0044_
*79 _0045_
*80 _0046_
*81 _0047_
*82 _0048_
*83 _0049_
*84 _0050_
*85 _0051_
*86 _0052_
*87 _0053_
*88 _0054_
*89 _0055_
*90 _0056_
*91 _0057_
*92 _0058_
*93 _0059_
*94 _0060_
*95 _0061_
*96 _0062_
*97 _0063_
*98 _0064_
*99 _0065_
*100 _0066_
*101 _0067_
*102 _0068_
*103 _0069_
*104 _0070_
*105 _0071_
*106 _0072_
*107 _0073_
*108 _0074_
*109 _0075_
*110 _0076_
*111 _0077_
*112 _0078_
*113 _0079_
*114 _0080_
*115 _0081_
*116 _0082_
*117 _0083_
*118 _0084_
*119 _0085_
*120 _0086_
*121 _0087_
*122 _0088_
*123 _0089_
*124 _0090_
*125 _0091_
*126 _0092_
*127 _0093_
*128 _0094_
*129 _0095_
*130 _0096_
*131 _0097_
*132 _0098_
*133 _0099_
*134 _0100_
*135 _0101_
*136 _0102_
*137 _0103_
*138 _0104_
*139 _0105_
*140 _0106_
*141 _0107_
*142 _0108_
*143 _0109_
*144 _0110_
*145 _0111_
*146 _0112_
*147 _0113_
*148 _0114_
*149 _0115_
*150 _0116_
*151 _0117_
*152 _0118_
*153 _0119_
*154 _0120_
*155 _0121_
*156 _0122_
*157 _0123_
*158 _0124_
*159 _0125_
*160 _0126_
*161 _0127_
*162 _0128_
*163 _0129_
*164 _0130_
*165 _0131_
*166 _0132_
*167 _0133_
*168 _0134_
*169 _0135_
*170 _0136_
*171 _0137_
*172 _0138_
*173 _0139_
*174 _0140_
*175 _0141_
*176 _0142_
*177 _0143_
*178 _0144_
*179 _0145_
*180 _0146_
*181 _0147_
*182 _0148_
*183 _0149_
*184 _0150_
*185 _0151_
*186 _0152_
*187 _0153_
*188 _0154_
*189 _0155_
*190 _0156_
*191 _0157_
*192 _0158_
*193 _0159_
*194 _0160_
*195 _0161_
*196 _0162_
*197 _0163_
*198 _0164_
*199 _0165_
*200 _0166_
*201 _0167_
*202 _0168_
*203 _0169_
*204 _0170_
*205 _0171_
*206 _0172_
*207 _0173_
*208 _0174_
*209 _0175_
*210 _0176_
*211 _0177_
*212 _0178_
*213 _0179_
*214 _0180_
*215 _0181_
*216 _0182_
*217 _0183_
*218 _0184_
*219 _0185_
*220 _0186_
*221 _0187_
*222 _0188_
*223 _0189_
*224 _0190_
*225 _0191_
*226 _0192_
*227 _0193_
*228 _0194_
*229 _0195_
*230 _0196_
*231 _0197_
*232 _0198_
*233 _0199_
*234 _0200_
*235 _0201_
*236 _0202_
*237 _0203_
*238 _0204_
*239 _0205_
*240 _0206_
*241 _0207_
*242 _0208_
*243 _0209_
*244 _0210_
*245 _0211_
*246 _0212_
*247 _0213_
*248 _0214_
*249 _0215_
*250 _0216_
*251 _0217_
*252 _0218_
*253 _0219_
*254 _0220_
*255 _0221_
*256 _0222_
*257 _0223_
*258 _0224_
*259 _0225_
*260 _0226_
*261 _0227_
*262 _0228_
*263 _0229_
*264 _0230_
*265 _0231_
*266 _0232_
*267 _0233_
*268 _0234_
*269 _0235_
*270 _0236_
*271 _0237_
*272 _0238_
*273 _0239_
*274 _0240_
*275 _0241_
*276 _0242_
*277 _0243_
*278 _0244_
*279 _0245_
*280 _0246_
*281 _0247_
*282 _0248_
*283 _0249_
*284 _0250_
*285 _0251_
*286 _0252_
*287 _0253_
*288 _0254_
*289 _0255_
*290 _0256_
*291 _0257_
*292 _0258_
*293 _0259_
*294 _0260_
*295 _0261_
*296 _0262_
*297 _0263_
*298 _0264_
*299 _0265_
*300 _0266_
*301 _0267_
*302 _0268_
*303 _0269_
*304 _0270_
*305 _0271_
*306 _0272_
*307 _0273_
*308 _0274_
*309 _0275_
*310 _0276_
*311 _0277_
*312 _0278_
*313 _0279_
*314 _0280_
*315 _0281_
*316 _0282_
*317 _0283_
*318 _0284_
*319 _0285_
*320 _0286_
*321 _0287_
*322 _0288_
*323 _0289_
*324 _0290_
*325 _0291_
*326 _0292_
*327 _0293_
*328 _0294_
*329 _0295_
*330 _0296_
*331 _0297_
*332 _0298_
*333 _0299_
*334 _0300_
*335 _0301_
*336 _0302_
*337 _0303_
*338 _0304_
*339 _0305_
*340 _0306_
*341 _0307_
*342 _0308_
*343 _0309_
*344 _0310_
*345 _0311_
*346 _0312_
*347 _0313_
*348 _0314_
*349 _0315_
*350 _0316_
*351 _0317_
*352 _0318_
*353 _0319_
*354 _0320_
*355 _0321_
*356 _0322_
*357 _0323_
*358 _0324_
*359 _0325_
*360 _0326_
*361 _0327_
*362 _0328_
*363 _0329_
*364 _0330_
*365 _0331_
*366 _0332_
*367 _0333_
*368 _0334_
*369 _0335_
*370 _0336_
*371 _0337_
*372 _0338_
*373 _0339_
*374 _0340_
*375 _0341_
*376 _0342_
*377 _0343_
*378 _0344_
*379 _0345_
*380 _0346_
*381 _0347_
*382 _0348_
*383 _0349_
*384 _0350_
*385 _0351_
*386 _0352_
*387 _0353_
*388 _0354_
*389 _0355_
*390 _0356_
*391 _0357_
*392 _0358_
*393 _0359_
*394 _0360_
*395 _0361_
*396 _0362_
*397 _0363_
*398 _0364_
*399 _0365_
*400 _0366_
*401 _0367_
*402 _0368_
*403 _0369_
*404 _0370_
*405 _0371_
*406 _0372_
*407 _0373_
*408 _0374_
*409 _0375_
*410 _0376_
*411 _0377_
*412 _0378_
*413 _0379_
*414 _0380_
*415 _0381_
*416 _0382_
*417 _0383_
*418 _0384_
*419 _0385_
*420 _0386_
*421 _0387_
*422 _0388_
*423 _0389_
*424 _0390_
*425 _0391_
*426 _0392_
*427 _0393_
*428 _0394_
*429 _0395_
*430 _0396_
*431 _0397_
*432 _0398_
*433 _0399_
*434 _0400_
*435 _0401_
*436 _0402_
*437 _0403_
*438 _0404_
*439 _0405_
*440 _0406_
*441 _0407_
*442 _0408_
*443 _0409_
*444 _0410_
*445 _0411_
*446 _0412_
*447 _0413_
*448 _0414_
*449 _0415_
*450 _0416_
*451 _0417_
*452 _0418_
*453 _0419_
*454 _0420_
*455 _0421_
*456 _0422_
*457 _0423_
*458 _0424_
*459 _0425_
*460 _0426_
*461 _0427_
*462 _0428_
*463 _0429_
*464 _0430_
*465 _0431_
*466 _0432_
*467 _0433_
*468 _0434_
*469 _0435_
*470 _0436_
*471 _0437_
*472 _0438_
*473 _0439_
*474 _0440_
*475 _0441_
*476 _0442_
*477 _0443_
*478 _0444_
*479 _0445_
*480 _0446_
*481 _0447_
*482 _0448_
*483 _0449_
*484 _0450_
*485 _0451_
*486 _0452_
*487 _0453_
*488 _0454_
*489 _0455_
*490 _0456_
*491 _0457_
*492 _0458_
*493 _0459_
*494 _0460_
*495 _0461_
*496 _0462_
*497 _0463_
*498 _0464_
*499 _0465_
*500 _0466_
*501 _0467_
*502 _0468_
*503 _0469_
*504 _0470_
*505 _0471_
*506 _0472_
*507 _0473_
*508 _0474_
*509 _0475_
*510 _0476_
*511 _0477_
*512 _0478_
*513 _0479_
*514 _0480_
*515 _0481_
*516 _0482_
*517 _0483_
*518 _0484_
*519 _0485_
*520 _0486_
*521 _0487_
*522 _0488_
*523 _0489_
*524 _0490_
*525 _0491_
*526 _0492_
*527 _0493_
*528 _0494_
*529 _0495_
*530 _0496_
*531 _0497_
*532 _0498_
*533 _0499_
*534 _0500_
*535 _0501_
*536 _0502_
*537 _0503_
*538 _0504_
*539 _0505_
*540 _0506_
*541 _0507_
*542 _0508_
*543 _0509_
*544 _0510_
*545 _0511_
*546 _0512_
*547 _0513_
*548 _0514_
*549 _0515_
*550 _0516_
*551 _0517_
*552 _0518_
*553 _0519_
*554 _0520_
*555 _0521_
*556 _0522_
*557 _0523_
*558 _0524_
*559 _0525_
*560 _0526_
*561 _0527_
*562 _0528_
*563 _0529_
*564 _0530_
*565 _0531_
*566 _0532_
*567 _0533_
*568 _0534_
*569 _0535_
*570 _0536_
*571 _0537_
*572 _0538_
*573 _0539_
*574 _0540_
*575 _0541_
*576 _0542_
*577 _0543_
*578 _0544_
*579 _0545_
*580 _0546_
*581 _0547_
*582 _0548_
*583 _0549_
*584 _0550_
*585 _0551_
*586 _0552_
*587 _0553_
*588 _0554_
*589 _0555_
*590 _0556_
*591 _0557_
*592 _0558_
*593 _0559_
*594 _0560_
*595 _0561_
*596 _0562_
*597 _0563_
*598 _0564_
*599 _0565_
*600 _0566_
*601 _0567_
*602 _0568_
*603 _0569_
*604 _0570_
*605 _0571_
*606 _0572_
*607 _0573_
*608 _0574_
*609 _0575_
*610 _0576_
*611 _0577_
*612 _0578_
*613 _0579_
*614 _0580_
*615 _0581_
*616 _0582_
*617 _0583_
*618 _0584_
*619 _0585_
*620 _0586_
*621 _0587_
*622 _0588_
*623 _0589_
*624 _0590_
*625 _0591_
*626 _0592_
*627 _0593_
*628 _0594_
*629 _0595_
*630 _0596_
*631 _0597_
*632 _0598_
*633 _0599_
*634 _0600_
*635 _0601_
*636 _0602_
*637 _0603_
*638 _0604_
*639 _0605_
*640 _0606_
*641 _0607_
*642 _0608_
*643 _0609_
*644 _0610_
*645 _0611_
*646 _0612_
*647 _0613_
*648 _0614_
*649 _0615_
*650 _0616_
*651 _0617_
*652 _0618_
*653 _0619_
*654 _0620_
*655 _0621_
*656 _0622_
*657 _0623_
*658 _0624_
*659 _0625_
*660 _0626_
*661 _0627_
*662 _0628_
*663 _0629_
*664 _0630_
*665 _0631_
*666 _0632_
*667 _0633_
*668 _0634_
*669 _0635_
*670 _0636_
*671 _0637_
*672 _0638_
*673 _0639_
*674 _0640_
*675 _0641_
*676 _0642_
*677 _0643_
*678 _0644_
*679 _0645_
*680 _0646_
*681 _0647_
*682 _0648_
*683 _0649_
*684 _0650_
*685 _0651_
*686 _0652_
*687 _0653_
*688 _0654_
*689 _0655_
*690 _0656_
*691 _0657_
*692 _0658_
*693 _0659_
*694 _0660_
*695 _0661_
*696 _0662_
*697 _0663_
*698 _0664_
*699 _0665_
*700 _0666_
*701 _0667_
*702 _0668_
*703 _0669_
*704 _0670_
*705 _0671_
*706 _0672_
*707 _0673_
*708 _0674_
*709 _0675_
*710 _0676_
*711 _0677_
*712 _0678_
*713 _0679_
*714 _0680_
*715 _0681_
*716 _0682_
*717 _0683_
*718 _0684_
*719 _0685_
*720 _0686_
*721 _0687_
*722 _0688_
*723 _0689_
*724 _0690_
*725 _0691_
*726 _0692_
*727 _0693_
*728 _0694_
*729 _0695_
*730 _0696_
*731 _0697_
*732 _0698_
*733 _0699_
*734 _0700_
*735 _0701_
*736 _0702_
*737 _0703_
*738 _0704_
*739 _0705_
*740 _0706_
*741 _0707_
*742 _0708_
*743 _0709_
*744 _0710_
*745 _0711_
*746 _0712_
*747 _0713_
*748 _0714_
*749 _0715_
*750 _0716_
*751 _0717_
*752 _0718_
*753 _0719_
*754 _0720_
*755 _0721_
*756 _0722_
*757 _0723_
*758 _0724_
*759 _0725_
*760 _0726_
*761 _0727_
*762 _0728_
*763 _0729_
*764 _0730_
*765 _0731_
*766 _0732_
*767 _0733_
*768 _0734_
*769 _0735_
*770 _0736_
*771 _0737_
*772 _0738_
*773 _0739_
*774 _0740_
*775 _0741_
*776 _0742_
*777 _0743_
*778 _0744_
*779 _0745_
*780 _0746_
*781 _0747_
*782 _0748_
*783 _0749_
*784 _0750_
*785 _0751_
*786 _0752_
*787 _0753_
*788 _0754_
*789 _0755_
*790 _0756_
*791 _0757_
*792 _0758_
*793 _0759_
*794 _0760_
*795 _0761_
*796 _0762_
*797 _0763_
*798 _0764_
*799 _0765_
*800 _0766_
*801 _0767_
*802 _0768_
*803 _0769_
*804 _0770_
*805 _0771_
*806 _0772_
*807 _0773_
*808 _0774_
*809 _0775_
*810 _0776_
*811 _0777_
*812 _0778_
*813 _0779_
*814 _0780_
*815 _0781_
*816 _0782_
*817 _0783_
*818 _0784_
*819 _0785_
*820 _0786_
*821 _0787_
*822 _0788_
*823 _0789_
*824 _0790_
*825 _0791_
*826 _0792_
*827 _0793_
*828 _0794_
*829 _0795_
*830 _0796_
*831 _0797_
*832 _0798_
*833 _0799_
*834 _0800_
*835 _0801_
*836 _0802_
*837 _0803_
*838 _0804_
*839 _0805_
*840 _0806_
*841 _0807_
*842 _0808_
*843 _0809_
*844 _0810_
*845 _0811_
*846 _0812_
*847 _0813_
*848 _0814_
*849 _0815_
*850 _0816_
*851 _0817_
*852 _0818_
*853 _0819_
*854 _0820_
*855 _0821_
*856 _0822_
*857 _0823_
*858 _0824_
*859 _0825_
*860 _0826_
*861 _0827_
*862 _0828_
*863 _0829_
*864 _0830_
*865 _0831_
*866 _0832_
*867 _0833_
*868 _0834_
*869 _0835_
*870 _0836_
*871 _0837_
*872 _0838_
*873 _0839_
*874 _0840_
*875 _0841_
*876 _0842_
*877 _0843_
*878 _0844_
*879 _0845_
*880 _0846_
*881 _0847_
*882 _0848_
*883 _0849_
*884 _0850_
*885 _0851_
*886 _0852_
*887 _0853_
*888 _0854_
*889 _0855_
*890 _0856_
*891 _0857_
*892 _0858_
*893 _0859_
*894 _0860_
*895 _0861_
*896 _0862_
*897 _0863_
*898 _0864_
*899 _0865_
*900 _0866_
*901 _0867_
*902 _0868_
*903 _0869_
*904 _0870_
*905 _0871_
*906 _0872_
*907 _0873_
*908 _0874_
*909 _0875_
*910 _0876_
*911 _0877_
*912 _0878_
*913 _0879_
*914 _0880_
*915 _0881_
*916 _0882_
*917 _0883_
*918 _0884_
*919 _0885_
*920 _0886_
*921 _0887_
*922 _0888_
*923 _0889_
*924 _0890_
*925 _0891_
*926 _0892_
*927 _0893_
*928 _0894_
*929 _0895_
*930 _0896_
*931 _0897_
*932 _0898_
*933 _0899_
*934 _0900_
*935 _0901_
*936 _0902_
*937 _0903_
*938 _0904_
*939 _0905_
*940 _0906_
*941 _0907_
*942 _0908_
*943 _0909_
*944 _0910_
*945 _0911_
*946 _0912_
*947 _0913_
*948 _0914_
*949 _0915_
*950 _0916_
*951 _0917_
*952 _0918_
*953 _0919_
*954 _0920_
*955 _0921_
*956 _0922_
*957 _0923_
*958 _0924_
*959 _0925_
*960 _0926_
*961 _0927_
*962 _0928_
*963 _0929_
*964 _0930_
*965 _0931_
*966 _0932_
*967 _0933_
*968 _0934_
*969 _0935_
*970 _0936_
*971 _0937_
*972 _0938_
*973 _0939_
*974 _0940_
*975 _0941_
*976 _0942_
*977 _0943_
*978 _0944_
*979 _0945_
*980 _0946_
*981 _0947_
*982 _0948_
*983 _0949_
*984 _0950_
*985 _0951_
*986 _0952_
*987 addr_offset1\[1\]
*988 addr_offset1\[2\]
*989 addr_offset1\[3\]
*990 addr_offset1\[4\]
*991 addr_offset1\[5\]
*992 addr_offset1\[6\]
*993 addr_offset1\[7\]
*994 addr_offset1\[8\]
*995 addr_saved0\[10\]
*996 addr_saved0\[11\]
*997 addr_saved0\[12\]
*998 addr_saved0\[13\]
*999 addr_saved0\[14\]
*1000 addr_saved0\[15\]
*1001 addr_saved0\[16\]
*1002 addr_saved0\[17\]
*1003 addr_saved0\[18\]
*1004 addr_saved0\[19\]
*1005 addr_saved0\[1\]
*1006 addr_saved0\[20\]
*1007 addr_saved0\[21\]
*1008 addr_saved0\[22\]
*1009 addr_saved0\[23\]
*1010 addr_saved0\[2\]
*1011 addr_saved0\[3\]
*1012 addr_saved0\[4\]
*1013 addr_saved0\[5\]
*1014 addr_saved0\[6\]
*1015 addr_saved0\[7\]
*1016 addr_saved0\[8\]
*1017 addr_saved0\[9\]
*1018 clknet_0__0263_
*1019 clknet_0_clk
*1020 clknet_1_0__leaf__0263_
*1021 clknet_1_0__leaf_clk
*1022 clknet_1_1__leaf__0263_
*1023 clknet_1_1__leaf_clk
*1024 clknet_leaf_0_clk
*1025 clknet_leaf_10_clk
*1026 clknet_leaf_11_clk
*1027 clknet_leaf_12_clk
*1028 clknet_leaf_1_clk
*1029 clknet_leaf_2_clk
*1030 clknet_leaf_3_clk
*1031 clknet_leaf_4_clk
*1032 clknet_leaf_5_clk
*1033 clknet_leaf_6_clk
*1034 clknet_leaf_7_clk
*1035 clknet_leaf_8_clk
*1036 clknet_leaf_9_clk
*1037 i_spi\.addr\[10\]
*1038 i_spi\.addr\[11\]
*1039 i_spi\.addr\[12\]
*1040 i_spi\.addr\[13\]
*1041 i_spi\.addr\[14\]
*1042 i_spi\.addr\[15\]
*1043 i_spi\.addr\[16\]
*1044 i_spi\.addr\[17\]
*1045 i_spi\.addr\[18\]
*1046 i_spi\.addr\[19\]
*1047 i_spi\.addr\[1\]
*1048 i_spi\.addr\[20\]
*1049 i_spi\.addr\[21\]
*1050 i_spi\.addr\[22\]
*1051 i_spi\.addr\[23\]
*1052 i_spi\.addr\[2\]
*1053 i_spi\.addr\[3\]
*1054 i_spi\.addr\[4\]
*1055 i_spi\.addr\[5\]
*1056 i_spi\.addr\[6\]
*1057 i_spi\.addr\[7\]
*1058 i_spi\.addr\[8\]
*1059 i_spi\.addr\[9\]
*1060 i_spi\.addr_in\[10\]
*1061 i_spi\.addr_in\[11\]
*1062 i_spi\.addr_in\[12\]
*1063 i_spi\.addr_in\[13\]
*1064 i_spi\.addr_in\[14\]
*1065 i_spi\.addr_in\[15\]
*1066 i_spi\.addr_in\[16\]
*1067 i_spi\.addr_in\[17\]
*1068 i_spi\.addr_in\[18\]
*1069 i_spi\.addr_in\[19\]
*1070 i_spi\.addr_in\[1\]
*1071 i_spi\.addr_in\[20\]
*1072 i_spi\.addr_in\[21\]
*1073 i_spi\.addr_in\[22\]
*1074 i_spi\.addr_in\[23\]
*1075 i_spi\.addr_in\[2\]
*1076 i_spi\.addr_in\[3\]
*1077 i_spi\.addr_in\[4\]
*1078 i_spi\.addr_in\[5\]
*1079 i_spi\.addr_in\[6\]
*1080 i_spi\.addr_in\[7\]
*1081 i_spi\.addr_in\[8\]
*1082 i_spi\.addr_in\[9\]
*1083 i_spi\.bits_remaining\[0\]
*1084 i_spi\.bits_remaining\[1\]
*1085 i_spi\.bits_remaining\[2\]
*1086 i_spi\.bits_remaining\[3\]
*1087 i_spi\.bits_remaining\[4\]
*1088 i_spi\.data\[0\]
*1089 i_spi\.data\[10\]
*1090 i_spi\.data\[11\]
*1091 i_spi\.data\[12\]
*1092 i_spi\.data\[13\]
*1093 i_spi\.data\[14\]
*1094 i_spi\.data\[15\]
*1095 i_spi\.data\[1\]
*1096 i_spi\.data\[2\]
*1097 i_spi\.data\[3\]
*1098 i_spi\.data\[4\]
*1099 i_spi\.data\[5\]
*1100 i_spi\.data\[6\]
*1101 i_spi\.data\[7\]
*1102 i_spi\.data\[8\]
*1103 i_spi\.data\[9\]
*1104 i_spi\.fsm_state\[0\]
*1105 i_spi\.fsm_state\[1\]
*1106 i_spi\.fsm_state\[2\]
*1107 i_spi\.spi_clk_out
*1108 i_spi\.spi_data_oe\[0\]
*1109 i_spi\.spi_miso_buf_n\[0\]
*1110 i_spi\.spi_miso_buf_n\[10\]
*1111 i_spi\.spi_miso_buf_n\[11\]
*1112 i_spi\.spi_miso_buf_n\[1\]
*1113 i_spi\.spi_miso_buf_n\[2\]
*1114 i_spi\.spi_miso_buf_n\[3\]
*1115 i_spi\.spi_miso_buf_n\[4\]
*1116 i_spi\.spi_miso_buf_n\[5\]
*1117 i_spi\.spi_miso_buf_n\[6\]
*1118 i_spi\.spi_miso_buf_n\[7\]
*1119 i_spi\.spi_miso_buf_n\[8\]
*1120 i_spi\.spi_miso_buf_n\[9\]
*1121 i_spi\.spi_miso_buf_p\[0\]
*1122 i_spi\.spi_miso_buf_p\[1\]
*1123 i_spi\.spi_miso_buf_p\[2\]
*1124 i_spi\.spi_miso_buf_p\[3\]
*1125 i_spi\.spi_miso_buf_p\[4\]
*1126 i_spi\.spi_miso_buf_p\[5\]
*1127 i_spi\.spi_miso_buf_p\[6\]
*1128 i_spi\.spi_miso_buf_p\[7\]
*1129 i_spi\.spi_mosi
*1130 i_spi\.spi_select
*1131 i_spi_buf\.empty
*1132 i_spi_buf\.fifo\[0\]
*1133 i_spi_buf\.fifo\[10\]
*1134 i_spi_buf\.fifo\[11\]
*1135 i_spi_buf\.fifo\[12\]
*1136 i_spi_buf\.fifo\[13\]
*1137 i_spi_buf\.fifo\[14\]
*1138 i_spi_buf\.fifo\[15\]
*1139 i_spi_buf\.fifo\[1\]
*1140 i_spi_buf\.fifo\[2\]
*1141 i_spi_buf\.fifo\[3\]
*1142 i_spi_buf\.fifo\[4\]
*1143 i_spi_buf\.fifo\[5\]
*1144 i_spi_buf\.fifo\[6\]
*1145 i_spi_buf\.fifo\[7\]
*1146 i_spi_buf\.fifo\[8\]
*1147 i_spi_buf\.fifo\[9\]
*1148 i_spi_buf\.prev_empty
*1149 i_spi_buf0\.fifo\[0\]
*1150 i_spi_buf0\.fifo\[10\]
*1151 i_spi_buf0\.fifo\[11\]
*1152 i_spi_buf0\.fifo\[12\]
*1153 i_spi_buf0\.fifo\[13\]
*1154 i_spi_buf0\.fifo\[14\]
*1155 i_spi_buf0\.fifo\[15\]
*1156 i_spi_buf0\.fifo\[1\]
*1157 i_spi_buf0\.fifo\[2\]
*1158 i_spi_buf0\.fifo\[3\]
*1159 i_spi_buf0\.fifo\[4\]
*1160 i_spi_buf0\.fifo\[5\]
*1161 i_spi_buf0\.fifo\[6\]
*1162 i_spi_buf0\.fifo\[7\]
*1163 i_spi_buf0\.fifo\[8\]
*1164 i_spi_buf0\.fifo\[9\]
*1165 i_vga\.hsync
*1166 i_vga\.timing_hor\.counter\[0\]
*1167 i_vga\.timing_hor\.counter\[10\]
*1168 i_vga\.timing_hor\.counter\[1\]
*1169 i_vga\.timing_hor\.counter\[2\]
*1170 i_vga\.timing_hor\.counter\[3\]
*1171 i_vga\.timing_hor\.counter\[4\]
*1172 i_vga\.timing_hor\.counter\[5\]
*1173 i_vga\.timing_hor\.counter\[6\]
*1174 i_vga\.timing_hor\.counter\[7\]
*1175 i_vga\.timing_hor\.counter\[8\]
*1176 i_vga\.timing_hor\.counter\[9\]
*1177 i_vga\.timing_ver\.blank
*1178 i_vga\.timing_ver\.counter\[0\]
*1179 i_vga\.timing_ver\.counter\[10\]
*1180 i_vga\.timing_ver\.counter\[1\]
*1181 i_vga\.timing_ver\.counter\[2\]
*1182 i_vga\.timing_ver\.counter\[3\]
*1183 i_vga\.timing_ver\.counter\[4\]
*1184 i_vga\.timing_ver\.counter\[5\]
*1185 i_vga\.timing_ver\.counter\[6\]
*1186 i_vga\.timing_ver\.counter\[7\]
*1187 i_vga\.timing_ver\.counter\[8\]
*1188 i_vga\.timing_ver\.counter\[9\]
*1189 i_vga\.timing_ver\.sync
*1190 i_vga\.vblank
*1191 i_video\.clear_addr
*1192 i_video\.colour\[0\]
*1193 i_video\.colour\[1\]
*1194 i_video\.colour\[2\]
*1195 i_video\.colour\[3\]
*1196 i_video\.colour\[4\]
*1197 i_video\.colour\[5\]
*1198 i_video\.frame_counter
*1199 i_video\.read_next_r
*1200 i_video\.repeat_count\[0\]
*1201 i_video\.repeat_count\[1\]
*1202 i_video\.repeat_count\[2\]
*1203 i_video\.repeat_count\[3\]
*1204 i_video\.repeat_count\[4\]
*1205 i_video\.repeat_count\[5\]
*1206 i_video\.repeat_count\[6\]
*1207 i_video\.repeat_count\[7\]
*1208 i_video\.repeat_count\[8\]
*1209 i_video\.run_length\[0\]
*1210 i_video\.run_length\[1\]
*1211 i_video\.run_length\[2\]
*1212 i_video\.run_length\[3\]
*1213 i_video\.run_length\[4\]
*1214 i_video\.run_length\[5\]
*1215 i_video\.run_length\[6\]
*1216 i_video\.run_length\[7\]
*1217 i_video\.run_length\[8\]
*1218 i_video\.run_length\[9\]
*1219 i_video\.start
*1220 net1
*1221 net100
*1222 net101
*1223 net102
*1224 net103
*1225 net104
*1226 net105
*1227 net106
*1228 net107
*1229 net108
*1230 net109
*1231 net110
*1232 net111
*1233 net112
*1234 net113
*1235 net114
*1236 net115
*1237 net116
*1238 net117
*1239 net118
*1240 net119
*1241 net120
*1242 net121
*1243 net122
*1244 net123
*1245 net124
*1246 net125
*1247 net126
*1248 net127
*1249 net128
*1250 net129
*1251 net130
*1252 net131
*1253 net132
*1254 net133
*1255 net134
*1256 net135
*1257 net136
*1258 net137
*1259 net138
*1260 net139
*1261 net140
*1262 net141
*1263 net142
*1264 net143
*1265 net144
*1266 net145
*1267 net146
*1268 net147
*1269 net148
*1270 net149
*1271 net150
*1272 net151
*1273 net152
*1274 net153
*1275 net154
*1276 net155
*1277 net156
*1278 net157
*1279 net158
*1280 net159
*1281 net160
*1282 net161
*1283 net162
*1284 net163
*1285 net164
*1286 net165
*1287 net166
*1288 net167
*1289 net168
*1290 net169
*1291 net17
*1292 net170
*1293 net171
*1294 net172
*1295 net173
*1296 net174
*1297 net175
*1298 net176
*1299 net177
*1300 net178
*1301 net179
*1302 net18
*1303 net180
*1304 net181
*1305 net182
*1306 net183
*1307 net184
*1308 net185
*1309 net186
*1310 net187
*1311 net188
*1312 net189
*1313 net19
*1314 net190
*1315 net191
*1316 net192
*1317 net193
*1318 net194
*1319 net195
*1320 net196
*1321 net197
*1322 net2
*1323 net20
*1324 net21
*1325 net22
*1326 net23
*1327 net24
*1328 net25
*1329 net26
*1330 net27
*1331 net28
*1332 net29
*1333 net3
*1334 net30
*1335 net31
*1336 net32
*1337 net33
*1338 net34
*1339 net35
*1340 net36
*1341 net37
*1342 net38
*1343 net39
*1344 net4
*1345 net40
*1346 net41
*1347 net42
*1348 net43
*1349 net44
*1350 net45
*1351 net46
*1352 net47
*1353 net48
*1354 net49
*1355 net5
*1356 net50
*1357 net51
*1358 net52
*1359 net53
*1360 net54
*1361 net55
*1362 net56
*1363 net57
*1364 net58
*1365 net59
*1366 net6
*1367 net60
*1368 net61
*1369 net62
*1370 net63
*1371 net64
*1372 net65
*1373 net66
*1374 net67
*1375 net68
*1376 net69
*1377 net7
*1378 net70
*1379 net71
*1380 net72
*1381 net73
*1382 net74
*1383 net75
*1384 net76
*1385 net77
*1386 net78
*1387 net79
*1388 net8
*1389 net80
*1390 net81
*1391 net82
*1392 net83
*1393 net84
*1394 net85
*1395 net86
*1396 net87
*1397 net88
*1398 net89
*1399 net90
*1400 net91
*1401 net92
*1402 net93
*1403 net94
*1404 net95
*1405 net96
*1406 net97
*1407 net98
*1408 net99
*1409 spi_started
*1410 ANTENNA_1
*1411 FILLER_0_0_104
*1412 FILLER_0_0_113
*1413 FILLER_0_0_139
*1414 FILLER_0_0_141
*1415 FILLER_0_0_149
*1416 FILLER_0_0_15
*1417 FILLER_0_0_172
*1418 FILLER_0_0_184
*1419 FILLER_0_0_192
*1420 FILLER_0_0_197
*1421 FILLER_0_0_205
*1422 FILLER_0_0_213
*1423 FILLER_0_0_27
*1424 FILLER_0_0_277
*1425 FILLER_0_0_29
*1426 FILLER_0_0_3
*1427 FILLER_0_0_305
*1428 FILLER_0_0_331
*1429 FILLER_0_0_41
*1430 FILLER_0_0_53
*1431 FILLER_0_0_81
*1432 FILLER_0_0_92
*1433 FILLER_0_0_96
*1434 FILLER_0_10_13
*1435 FILLER_0_10_137
*1436 FILLER_0_10_141
*1437 FILLER_0_10_147
*1438 FILLER_0_10_154
*1439 FILLER_0_10_172
*1440 FILLER_0_10_211
*1441 FILLER_0_10_225
*1442 FILLER_0_10_27
*1443 FILLER_0_10_291
*1444 FILLER_0_10_3
*1445 FILLER_0_10_313
*1446 FILLER_0_10_333
*1447 FILLER_0_10_35
*1448 FILLER_0_10_51
*1449 FILLER_0_10_73
*1450 FILLER_0_10_82
*1451 FILLER_0_10_85
*1452 FILLER_0_10_9
*1453 FILLER_0_11_107
*1454 FILLER_0_11_111
*1455 FILLER_0_11_113
*1456 FILLER_0_11_156
*1457 FILLER_0_11_177
*1458 FILLER_0_11_242
*1459 FILLER_0_11_251
*1460 FILLER_0_11_267
*1461 FILLER_0_11_281
*1462 FILLER_0_11_323
*1463 FILLER_0_11_46
*1464 FILLER_0_11_57
*1465 FILLER_0_12_11
*1466 FILLER_0_12_111
*1467 FILLER_0_12_119
*1468 FILLER_0_12_125
*1469 FILLER_0_12_141
*1470 FILLER_0_12_184
*1471 FILLER_0_12_193
*1472 FILLER_0_12_228
*1473 FILLER_0_12_238
*1474 FILLER_0_12_250
*1475 FILLER_0_12_26
*1476 FILLER_0_12_3
*1477 FILLER_0_12_306
*1478 FILLER_0_12_325
*1479 FILLER_0_12_47
*1480 FILLER_0_12_77
*1481 FILLER_0_12_83
*1482 FILLER_0_12_85
*1483 FILLER_0_12_94
*1484 FILLER_0_12_99
*1485 FILLER_0_13_110
*1486 FILLER_0_13_113
*1487 FILLER_0_13_119
*1488 FILLER_0_13_130
*1489 FILLER_0_13_136
*1490 FILLER_0_13_150
*1491 FILLER_0_13_156
*1492 FILLER_0_13_176
*1493 FILLER_0_13_196
*1494 FILLER_0_13_28
*1495 FILLER_0_13_3
*1496 FILLER_0_13_320
*1497 FILLER_0_13_330
*1498 FILLER_0_13_334
*1499 FILLER_0_13_43
*1500 FILLER_0_13_55
*1501 FILLER_0_13_79
*1502 FILLER_0_13_88
*1503 FILLER_0_14_10
*1504 FILLER_0_14_108
*1505 FILLER_0_14_112
*1506 FILLER_0_14_124
*1507 FILLER_0_14_139
*1508 FILLER_0_14_14
*1509 FILLER_0_14_141
*1510 FILLER_0_14_152
*1511 FILLER_0_14_156
*1512 FILLER_0_14_180
*1513 FILLER_0_14_191
*1514 FILLER_0_14_195
*1515 FILLER_0_14_197
*1516 FILLER_0_14_213
*1517 FILLER_0_14_22
*1518 FILLER_0_14_221
*1519 FILLER_0_14_274
*1520 FILLER_0_14_3
*1521 FILLER_0_14_334
*1522 FILLER_0_14_47
*1523 FILLER_0_14_56
*1524 FILLER_0_14_80
*1525 FILLER_0_14_92
*1526 FILLER_0_15_128
*1527 FILLER_0_15_148
*1528 FILLER_0_15_158
*1529 FILLER_0_15_196
*1530 FILLER_0_15_211
*1531 FILLER_0_15_217
*1532 FILLER_0_15_29
*1533 FILLER_0_15_296
*1534 FILLER_0_15_3
*1535 FILLER_0_15_334
*1536 FILLER_0_15_51
*1537 FILLER_0_15_55
*1538 FILLER_0_15_57
*1539 FILLER_0_15_68
*1540 FILLER_0_15_85
*1541 FILLER_0_16_101
*1542 FILLER_0_16_171
*1543 FILLER_0_16_194
*1544 FILLER_0_16_216
*1545 FILLER_0_16_234
*1546 FILLER_0_16_247
*1547 FILLER_0_16_251
*1548 FILLER_0_16_253
*1549 FILLER_0_16_29
*1550 FILLER_0_16_3
*1551 FILLER_0_16_304
*1552 FILLER_0_16_318
*1553 FILLER_0_16_48
*1554 FILLER_0_16_54
*1555 FILLER_0_16_7
*1556 FILLER_0_16_70
*1557 FILLER_0_16_78
*1558 FILLER_0_16_85
*1559 FILLER_0_16_91
*1560 FILLER_0_17_111
*1561 FILLER_0_17_149
*1562 FILLER_0_17_169
*1563 FILLER_0_17_18
*1564 FILLER_0_17_231
*1565 FILLER_0_17_248
*1566 FILLER_0_17_270
*1567 FILLER_0_17_298
*1568 FILLER_0_17_3
*1569 FILLER_0_17_315
*1570 FILLER_0_17_334
*1571 FILLER_0_17_41
*1572 FILLER_0_17_69
*1573 FILLER_0_17_79
*1574 FILLER_0_18_112
*1575 FILLER_0_18_12
*1576 FILLER_0_18_138
*1577 FILLER_0_18_141
*1578 FILLER_0_18_149
*1579 FILLER_0_18_174
*1580 FILLER_0_18_207
*1581 FILLER_0_18_231
*1582 FILLER_0_18_250
*1583 FILLER_0_18_253
*1584 FILLER_0_18_29
*1585 FILLER_0_18_3
*1586 FILLER_0_18_306
*1587 FILLER_0_18_318
*1588 FILLER_0_18_76
*1589 FILLER_0_18_80
*1590 FILLER_0_19_140
*1591 FILLER_0_19_155
*1592 FILLER_0_19_167
*1593 FILLER_0_19_197
*1594 FILLER_0_19_211
*1595 FILLER_0_19_220
*1596 FILLER_0_19_229
*1597 FILLER_0_19_24
*1598 FILLER_0_19_279
*1599 FILLER_0_19_28
*1600 FILLER_0_19_32
*1601 FILLER_0_19_333
*1602 FILLER_0_19_36
*1603 FILLER_0_19_47
*1604 FILLER_0_19_55
*1605 FILLER_0_19_57
*1606 FILLER_0_19_69
*1607 FILLER_0_19_77
*1608 FILLER_0_19_88
*1609 FILLER_0_19_94
*1610 FILLER_0_1_104
*1611 FILLER_0_1_122
*1612 FILLER_0_1_134
*1613 FILLER_0_1_148
*1614 FILLER_0_1_15
*1615 FILLER_0_1_158
*1616 FILLER_0_1_185
*1617 FILLER_0_1_194
*1618 FILLER_0_1_205
*1619 FILLER_0_1_27
*1620 FILLER_0_1_281
*1621 FILLER_0_1_291
*1622 FILLER_0_1_3
*1623 FILLER_0_1_311
*1624 FILLER_0_1_52
*1625 FILLER_0_1_64
*1626 FILLER_0_1_80
*1627 FILLER_0_1_88
*1628 FILLER_0_1_94
*1629 FILLER_0_20_135
*1630 FILLER_0_20_155
*1631 FILLER_0_20_160
*1632 FILLER_0_20_195
*1633 FILLER_0_20_242
*1634 FILLER_0_20_261
*1635 FILLER_0_20_289
*1636 FILLER_0_20_3
*1637 FILLER_0_20_307
*1638 FILLER_0_20_315
*1639 FILLER_0_20_65
*1640 FILLER_0_20_83
*1641 FILLER_0_20_90
*1642 FILLER_0_21_100
*1643 FILLER_0_21_113
*1644 FILLER_0_21_121
*1645 FILLER_0_21_131
*1646 FILLER_0_21_135
*1647 FILLER_0_21_141
*1648 FILLER_0_21_156
*1649 FILLER_0_21_166
*1650 FILLER_0_21_177
*1651 FILLER_0_21_191
*1652 FILLER_0_21_204
*1653 FILLER_0_21_211
*1654 FILLER_0_21_215
*1655 FILLER_0_21_222
*1656 FILLER_0_21_225
*1657 FILLER_0_21_253
*1658 FILLER_0_21_26
*1659 FILLER_0_21_287
*1660 FILLER_0_21_3
*1661 FILLER_0_21_314
*1662 FILLER_0_21_32
*1663 FILLER_0_21_47
*1664 FILLER_0_21_78
*1665 FILLER_0_21_90
*1666 FILLER_0_22_101
*1667 FILLER_0_22_125
*1668 FILLER_0_22_134
*1669 FILLER_0_22_157
*1670 FILLER_0_22_161
*1671 FILLER_0_22_194
*1672 FILLER_0_22_197
*1673 FILLER_0_22_201
*1674 FILLER_0_22_212
*1675 FILLER_0_22_23
*1676 FILLER_0_22_243
*1677 FILLER_0_22_27
*1678 FILLER_0_22_317
*1679 FILLER_0_22_334
*1680 FILLER_0_22_50
*1681 FILLER_0_22_54
*1682 FILLER_0_22_78
*1683 FILLER_0_22_94
*1684 FILLER_0_23_111
*1685 FILLER_0_23_126
*1686 FILLER_0_23_143
*1687 FILLER_0_23_158
*1688 FILLER_0_23_164
*1689 FILLER_0_23_17
*1690 FILLER_0_23_177
*1691 FILLER_0_23_185
*1692 FILLER_0_23_191
*1693 FILLER_0_23_215
*1694 FILLER_0_23_222
*1695 FILLER_0_23_233
*1696 FILLER_0_23_253
*1697 FILLER_0_23_263
*1698 FILLER_0_23_293
*1699 FILLER_0_23_3
*1700 FILLER_0_23_333
*1701 FILLER_0_23_37
*1702 FILLER_0_23_47
*1703 FILLER_0_23_55
*1704 FILLER_0_23_69
*1705 FILLER_0_24_112
*1706 FILLER_0_24_116
*1707 FILLER_0_24_130
*1708 FILLER_0_24_134
*1709 FILLER_0_24_154
*1710 FILLER_0_24_166
*1711 FILLER_0_24_174
*1712 FILLER_0_24_193
*1713 FILLER_0_24_197
*1714 FILLER_0_24_203
*1715 FILLER_0_24_210
*1716 FILLER_0_24_226
*1717 FILLER_0_24_256
*1718 FILLER_0_24_26
*1719 FILLER_0_24_291
*1720 FILLER_0_24_3
*1721 FILLER_0_24_318
*1722 FILLER_0_24_32
*1723 FILLER_0_24_53
*1724 FILLER_0_24_64
*1725 FILLER_0_24_76
*1726 FILLER_0_24_85
*1727 FILLER_0_24_96
*1728 FILLER_0_25_110
*1729 FILLER_0_25_113
*1730 FILLER_0_25_133
*1731 FILLER_0_25_140
*1732 FILLER_0_25_15
*1733 FILLER_0_25_150
*1734 FILLER_0_25_192
*1735 FILLER_0_25_205
*1736 FILLER_0_25_215
*1737 FILLER_0_25_241
*1738 FILLER_0_25_278
*1739 FILLER_0_25_28
*1740 FILLER_0_25_294
*1741 FILLER_0_25_3
*1742 FILLER_0_25_333
*1743 FILLER_0_25_51
*1744 FILLER_0_25_55
*1745 FILLER_0_25_61
*1746 FILLER_0_25_65
*1747 FILLER_0_25_73
*1748 FILLER_0_25_9
*1749 FILLER_0_25_98
*1750 FILLER_0_26_124
*1751 FILLER_0_26_183
*1752 FILLER_0_26_214
*1753 FILLER_0_26_24
*1754 FILLER_0_26_251
*1755 FILLER_0_26_29
*1756 FILLER_0_26_290
*1757 FILLER_0_26_317
*1758 FILLER_0_26_334
*1759 FILLER_0_26_43
*1760 FILLER_0_26_81
*1761 FILLER_0_27_110
*1762 FILLER_0_27_113
*1763 FILLER_0_27_117
*1764 FILLER_0_27_129
*1765 FILLER_0_27_144
*1766 FILLER_0_27_166
*1767 FILLER_0_27_169
*1768 FILLER_0_27_187
*1769 FILLER_0_27_191
*1770 FILLER_0_27_216
*1771 FILLER_0_27_233
*1772 FILLER_0_27_270
*1773 FILLER_0_27_28
*1774 FILLER_0_27_290
*1775 FILLER_0_27_3
*1776 FILLER_0_27_32
*1777 FILLER_0_27_334
*1778 FILLER_0_27_54
*1779 FILLER_0_27_64
*1780 FILLER_0_27_68
*1781 FILLER_0_27_88
*1782 FILLER_0_27_9
*1783 FILLER_0_28_106
*1784 FILLER_0_28_110
*1785 FILLER_0_28_148
*1786 FILLER_0_28_175
*1787 FILLER_0_28_190
*1788 FILLER_0_28_194
*1789 FILLER_0_28_197
*1790 FILLER_0_28_208
*1791 FILLER_0_28_253
*1792 FILLER_0_28_26
*1793 FILLER_0_28_268
*1794 FILLER_0_28_306
*1795 FILLER_0_28_334
*1796 FILLER_0_28_40
*1797 FILLER_0_28_65
*1798 FILLER_0_28_72
*1799 FILLER_0_28_78
*1800 FILLER_0_28_85
*1801 FILLER_0_28_93
*1802 FILLER_0_29_129
*1803 FILLER_0_29_166
*1804 FILLER_0_29_169
*1805 FILLER_0_29_173
*1806 FILLER_0_29_192
*1807 FILLER_0_29_202
*1808 FILLER_0_29_210
*1809 FILLER_0_29_222
*1810 FILLER_0_29_253
*1811 FILLER_0_29_26
*1812 FILLER_0_29_270
*1813 FILLER_0_29_287
*1814 FILLER_0_29_3
*1815 FILLER_0_29_307
*1816 FILLER_0_29_317
*1817 FILLER_0_29_55
*1818 FILLER_0_29_57
*1819 FILLER_0_29_9
*1820 FILLER_0_29_90
*1821 FILLER_0_29_97
*1822 FILLER_0_2_130
*1823 FILLER_0_2_141
*1824 FILLER_0_2_15
*1825 FILLER_0_2_166
*1826 FILLER_0_2_174
*1827 FILLER_0_2_180
*1828 FILLER_0_2_188