*SPEF "ieee 1481-1999"
*DESIGN "tt_um_maheredia"
*DATE "22:15:53 Friday May 31, 2024"
*VENDOR "The OpenROAD Project"
*PROGRAM "OpenROAD"
*VERSION "da0053d7b0014ab9c87ea148875ff6c2a0f9b658"
*DESIGN_FLOW "NAME_SCOPE LOCAL" "PIN_CAP NONE"
*DIVIDER /
*DELIMITER :
*BUS_DELIMITER []
*T_UNIT 1 NS
*C_UNIT 1 PF
*R_UNIT 1 OHM
*L_UNIT 1 HENRY

*NAME_MAP
*3 clk
*4 ena
*5 rst_n
*6 ui_in[0]
*7 ui_in[1]
*8 ui_in[2]
*9 ui_in[3]
*10 ui_in[4]
*11 ui_in[5]
*12 ui_in[6]
*13 ui_in[7]
*14 uio_in[0]
*15 uio_in[1]
*16 uio_in[2]
*17 uio_in[3]
*18 uio_in[4]
*19 uio_in[5]
*20 uio_in[6]
*21 uio_in[7]
*22 net38
*23 net39
*24 net40
*25 net41
*26 net42
*27 net43
*28 net44
*29 net45
*30 net46
*31 net47
*32 net48
*33 net49
*34 net50
*35 net51
*36 net52
*37 net53
*38 uo_out[0]
*39 uo_out[1]
*40 uo_out[2]
*41 uo_out[3]
*42 net54
*43 net55
*44 net56
*45 net57
*46 _0000_
*47 _0001_
*48 _0002_
*49 _0003_
*50 _0004_
*51 _0005_
*52 _0006_
*53 _0007_
*54 _0008_
*55 _0009_
*56 _0010_
*57 _0011_
*58 _0012_
*59 _0013_
*60 _0014_
*61 _0015_
*62 _0016_
*63 _0017_
*64 _0018_
*65 _0019_
*66 _0020_
*67 _0021_
*68 _0022_
*69 _0023_
*70 _0024_
*71 _0025_
*72 _0026_
*73 _0027_
*74 _0028_
*75 _0029_
*76 _0030_
*77 _0031_
*78 _0032_
*79 _0033_
*80 _0034_
*81 _0035_
*82 _0036_
*83 _0037_
*84 _0038_
*85 _0039_
*86 _0040_
*87 _0041_
*88 _0042_
*89 _0043_
*90 _0044_
*91 _0045_
*92 _0046_
*93 _0047_
*94 _0048_
*95 _0049_
*96 _0050_
*97 _0051_
*98 _0052_
*99 _0053_
*100 _0054_
*101 _0055_
*102 _0056_
*103 _0057_
*104 _0058_
*105 _0059_
*106 _0060_
*107 _0061_
*108 _0062_
*109 _0063_
*110 _0064_
*111 _0065_
*112 _0066_
*113 _0067_
*114 _0068_
*115 _0069_
*116 _0070_
*117 _0071_
*118 _0072_
*119 _0073_
*120 _0074_
*121 _0075_
*122 _0076_
*123 _0077_
*124 _0078_
*125 _0079_
*126 _0080_
*127 _0081_
*128 _0082_
*129 _0083_
*130 _0084_
*131 _0085_
*132 _0086_
*133 _0087_
*134 _0088_
*135 _0089_
*136 _0090_
*137 _0091_
*138 _0092_
*139 _0093_
*140 _0094_
*141 _0095_
*142 _0096_
*143 _0097_
*144 _0098_
*145 _0099_
*146 _0100_
*147 _0101_
*148 _0102_
*149 _0103_
*150 _0104_
*151 _0105_
*152 _0106_
*153 _0107_
*154 _0108_
*155 _0109_
*156 _0110_
*157 _0111_
*158 _0112_
*159 _0113_
*160 _0114_
*161 _0115_
*162 _0116_
*163 _0117_
*164 _0118_
*165 _0119_
*166 _0120_
*167 _0121_
*168 _0122_
*169 _0123_
*170 _0124_
*171 _0125_
*172 _0126_
*173 _0127_
*174 _0128_
*175 _0129_
*176 _0130_
*177 _0131_
*178 _0132_
*179 _0133_
*180 _0134_
*181 _0135_
*182 _0136_
*183 _0137_
*184 _0138_
*185 _0139_
*186 _0140_
*187 _0141_
*188 _0142_
*189 _0143_
*190 _0144_
*191 _0145_
*192 _0146_
*193 _0147_
*194 _0148_
*195 _0149_
*196 _0150_
*197 _0151_
*198 _0152_
*199 _0153_
*200 _0154_
*201 _0155_
*202 _0156_
*203 _0157_
*204 _0158_
*205 _0159_
*206 _0160_
*207 _0161_
*208 _0162_
*209 _0163_
*210 _0164_
*211 _0165_
*212 _0166_
*213 _0167_
*214 _0168_
*215 _0169_
*216 _0170_
*217 _0171_
*218 _0172_
*219 _0173_
*220 _0174_
*221 _0175_
*222 _0176_
*223 _0177_
*224 _0178_
*225 _0179_
*226 _0180_
*227 _0181_
*228 _0182_
*229 _0183_
*230 _0184_
*231 _0185_
*232 _0186_
*233 _0187_
*234 _0188_
*235 _0189_
*236 _0190_
*237 _0191_
*238 _0192_
*239 _0193_
*240 _0194_
*241 _0195_
*242 _0196_
*243 _0197_
*244 _0198_
*245 _0199_
*246 _0200_
*247 _0201_
*248 _0202_
*249 _0203_
*250 _0204_
*251 _0205_
*252 _0206_
*253 _0207_
*254 _0208_
*255 _0209_
*256 _0210_
*257 _0211_
*258 _0212_
*259 _0213_
*260 _0214_
*261 _0215_
*262 _0216_
*263 _0217_
*264 _0218_
*265 _0219_
*266 _0220_
*267 _0221_
*268 _0222_
*269 _0223_
*270 _0224_
*271 _0225_
*272 _0226_
*273 _0227_
*274 _0228_
*275 _0229_
*276 _0230_
*277 _0231_
*278 _0232_
*279 _0233_
*280 _0234_
*281 _0235_
*282 _0236_
*283 _0237_
*284 _0238_
*285 _0239_
*286 _0240_
*287 _0241_
*288 _0242_
*289 _0243_
*290 _0244_
*291 _0245_
*292 _0246_
*293 _0247_
*294 _0248_
*295 _0249_
*296 _0250_
*297 _0251_
*298 _0252_
*299 _0253_
*300 _0254_
*301 _0255_
*302 _0256_
*303 _0257_
*304 _0258_
*305 _0259_
*306 _0260_
*307 _0261_
*308 _0262_
*309 _0263_
*310 _0264_
*311 _0265_
*312 _0266_
*313 _0267_
*314 _0268_
*315 _0269_
*316 _0270_
*317 _0271_
*318 _0272_
*319 _0273_
*320 _0274_
*321 _0275_
*322 _0276_
*323 _0277_
*324 _0278_
*325 _0279_
*326 _0280_
*327 _0281_
*328 _0282_
*329 _0283_
*330 _0284_
*331 _0285_
*332 _0286_
*333 _0287_
*334 _0288_
*335 _0289_
*336 _0290_
*337 _0291_
*338 _0292_
*339 _0293_
*340 _0294_
*341 _0295_
*342 _0296_
*343 _0297_
*344 _0298_
*345 _0299_
*346 _0300_
*347 _0301_
*348 _0302_
*349 _0303_
*350 _0304_
*351 _0305_
*352 _0306_
*353 _0307_
*354 _0308_
*355 _0309_
*356 _0310_
*357 _0311_
*358 _0312_
*359 _0313_
*360 _0314_
*361 _0315_
*362 _0316_
*363 _0317_
*364 _0318_
*365 _0319_
*366 _0320_
*367 _0321_
*368 _0322_
*369 _0323_
*370 _0324_
*371 _0325_
*372 _0326_
*373 _0327_
*374 _0328_
*375 _0329_
*376 _0330_
*377 _0331_
*378 _0332_
*379 _0333_
*380 _0334_
*381 _0335_
*382 _0336_
*383 _0337_
*384 _0338_
*385 _0339_
*386 _0340_
*387 _0341_
*388 _0342_
*389 _0343_
*390 _0344_
*391 _0345_
*392 _0346_
*393 _0347_
*394 _0348_
*395 _0349_
*396 _0350_
*397 _0351_
*398 _0352_
*399 _0353_
*400 _0354_
*401 _0355_
*402 _0356_
*403 _0357_
*404 _0358_
*405 _0359_
*406 _0360_
*407 _0361_
*408 _0362_
*409 _0363_
*410 _0364_
*411 _0365_
*412 _0366_
*413 _0367_
*414 _0368_
*415 _0369_
*416 _0370_
*417 _0371_
*418 _0372_
*419 _0373_
*420 _0374_
*421 _0375_
*422 _0376_
*423 _0377_
*424 _0378_
*425 _0379_
*426 _0380_
*427 _0381_
*428 _0382_
*429 _0383_
*430 _0384_
*431 _0385_
*432 _0386_
*433 _0387_
*434 _0388_
*435 _0389_
*436 _0390_
*437 _0391_
*438 _0392_
*439 _0393_
*440 _0394_
*441 _0395_
*442 _0396_
*443 _0397_
*444 _0398_
*445 _0399_
*446 _0400_
*447 _0401_
*448 _0402_
*449 _0403_
*450 _0404_
*451 _0405_
*452 _0406_
*453 _0407_
*454 _0408_
*455 _0409_
*456 _0410_
*457 _0411_
*458 _0412_
*459 _0413_
*460 _0414_
*461 _0415_
*462 _0416_
*463 _0417_
*464 _0418_
*465 _0419_
*466 _0420_
*467 _0421_
*468 _0422_
*469 _0423_
*470 _0424_
*471 _0425_
*472 _0426_
*473 _0427_
*474 _0428_
*475 _0429_
*476 _0430_
*477 _0431_
*478 _0432_
*479 _0433_
*480 _0434_
*481 _0435_
*482 _0436_
*483 _0437_
*484 _0438_
*485 _0439_
*486 _0440_
*487 _0441_
*488 _0442_
*489 _0443_
*490 _0444_
*491 _0445_
*492 _0446_
*493 _0447_
*494 _0448_
*495 _0449_
*496 _0450_
*497 _0451_
*498 _0452_
*499 _0453_
*500 _0454_
*501 _0455_
*502 _0456_
*503 _0457_
*504 _0458_
*505 _0459_
*506 _0460_
*507 _0461_
*508 _0462_
*509 _0463_
*510 _0464_
*511 _0465_
*512 _0466_
*513 _0467_
*514 _0468_
*515 _0469_
*516 _0470_
*517 _0471_
*518 _0472_
*519 _0473_
*520 _0474_
*521 _0475_
*522 _0476_
*523 _0477_
*524 _0478_
*525 _0479_
*526 _0480_
*527 _0481_
*528 _0482_
*529 _0483_
*530 _0484_
*531 _0485_
*532 _0486_
*533 _0487_
*534 _0488_
*535 _0489_
*536 _0490_
*537 _0491_
*538 _0492_
*539 _0493_
*540 _0494_
*541 _0495_
*542 _0496_
*543 _0497_
*544 _0498_
*545 _0499_
*546 _0500_
*547 _0501_
*548 _0502_
*549 _0503_
*550 _0504_
*551 _0505_
*552 _0506_
*553 _0507_
*554 _0508_
*555 _0509_
*556 _0510_
*557 _0511_
*558 _0512_
*559 _0513_
*560 _0514_
*561 _0515_
*562 _0516_
*563 _0517_
*564 _0518_
*565 _0519_
*566 _0520_
*567 _0521_
*568 _0522_
*569 _0523_
*570 _0524_
*571 _0525_
*572 _0526_
*573 _0527_
*574 _0528_
*575 _0529_
*576 _0530_
*577 _0531_
*578 _0532_
*579 _0533_
*580 _0534_
*581 _0535_
*582 _0536_
*583 _0537_
*584 _0538_
*585 _0539_
*586 _0540_
*587 _0541_
*588 _0542_
*589 _0543_
*590 _0544_
*591 _0545_
*592 _0546_
*593 _0547_
*594 _0548_
*595 _0549_
*596 _0550_
*597 _0551_
*598 _0552_
*599 _0553_
*600 _0554_
*601 _0555_
*602 _0556_
*603 _0557_
*604 _0558_
*605 _0559_
*606 _0560_
*607 _0561_
*608 _0562_
*609 _0563_
*610 _0564_
*611 _0565_
*612 _0566_
*613 _0567_
*614 _0568_
*615 _0569_
*616 _0570_
*617 _0571_
*618 _0572_
*619 _0573_
*620 _0574_
*621 _0575_
*622 _0576_
*623 _0577_
*624 _0578_
*625 _0579_
*626 _0580_
*627 _0581_
*628 _0582_
*629 _0583_
*630 _0584_
*631 _0585_
*632 _0586_
*633 _0587_
*634 _0588_
*635 _0589_
*636 _0590_
*637 _0591_
*638 _0592_
*639 _0593_
*640 _0594_
*641 _0595_
*642 _0596_
*643 _0597_
*644 _0598_
*645 _0599_
*646 _0600_
*647 _0601_
*648 _0602_
*649 _0603_
*650 _0604_
*651 _0605_
*652 _0606_
*653 _0607_
*654 _0608_
*655 _0609_
*656 _0610_
*657 _0611_
*658 _0612_
*659 _0613_
*660 _0614_
*661 _0615_
*662 _0616_
*663 _0617_
*664 _0618_
*665 _0619_
*666 _0620_
*667 _0621_
*668 _0622_
*669 _0623_
*670 _0624_
*671 _0625_
*672 _0626_
*673 _0627_
*674 _0628_
*675 clknet_0_clk
*676 clknet_1_0__leaf_clk
*677 clknet_1_1__leaf_clk
*678 clknet_leaf_0_clk
*679 clknet_leaf_10_clk
*680 clknet_leaf_11_clk
*681 clknet_leaf_12_clk
*682 clknet_leaf_1_clk
*683 clknet_leaf_2_clk
*684 clknet_leaf_3_clk
*685 clknet_leaf_4_clk
*686 clknet_leaf_5_clk
*687 clknet_leaf_6_clk
*688 clknet_leaf_7_clk
*689 clknet_leaf_8_clk
*690 clknet_leaf_9_clk
*691 core\.ca_phase_in\[0\]
*692 core\.ca_phase_in\[10\]
*693 core\.ca_phase_in\[11\]
*694 core\.ca_phase_in\[12\]
*695 core\.ca_phase_in\[13\]
*696 core\.ca_phase_in\[14\]
*697 core\.ca_phase_in\[15\]
*698 core\.ca_phase_in\[1\]
*699 core\.ca_phase_in\[2\]
*700 core\.ca_phase_in\[3\]
*701 core\.ca_phase_in\[4\]
*702 core\.ca_phase_in\[5\]
*703 core\.ca_phase_in\[6\]
*704 core\.ca_phase_in\[7\]
*705 core\.ca_phase_in\[8\]
*706 core\.ca_phase_in\[9\]
*707 core\.cos_clean
*708 core\.doppler_in\[0\]
*709 core\.doppler_in\[1\]
*710 core\.doppler_in\[2\]
*711 core\.doppler_in\[3\]
*712 core\.doppler_in\[4\]
*713 core\.doppler_in\[5\]
*714 core\.doppler_in\[6\]
*715 core\.doppler_in\[7\]
*716 core\.ena_in
*717 core\.gc
*718 core\.gc_gen\.g1\[0\]
*719 core\.gc_gen\.g1\[1\]
*720 core\.gc_gen\.g1\[2\]
*721 core\.gc_gen\.g1\[3\]
*722 core\.gc_gen\.g1\[4\]
*723 core\.gc_gen\.g1\[5\]
*724 core\.gc_gen\.g1\[6\]
*725 core\.gc_gen\.g1\[7\]
*726 core\.gc_gen\.g1\[8\]
*727 core\.gc_gen\.g1\[9\]
*728 core\.gc_gen\.g2\[0\]
*729 core\.gc_gen\.g2\[1\]
*730 core\.gc_gen\.g2\[2\]
*731 core\.gc_gen\.g2\[3\]
*732 core\.gc_gen\.g2\[4\]
*733 core\.gc_gen\.g2\[5\]
*734 core\.gc_gen\.g2\[6\]
*735 core\.gc_gen\.g2\[7\]
*736 core\.gc_gen\.g2\[8\]
*737 core\.gc_gen\.g2\[9\]
*738 core\.gc_gen\.gc
*739 core\.gc_gen\.sat_sel_in\[0\]
*740 core\.gc_gen\.sat_sel_in\[1\]
*741 core\.gc_gen\.sat_sel_in\[2\]
*742 core\.gc_gen\.sat_sel_in\[3\]
*743 core\.gc_gen\.sat_sel_in\[4\]
*744 core\.gc_phase_cntr\[0\]
*745 core\.gc_phase_cntr\[10\]
*746 core\.gc_phase_cntr\[11\]
*747 core\.gc_phase_cntr\[12\]
*748 core\.gc_phase_cntr\[13\]
*749 core\.gc_phase_cntr\[14\]
*750 core\.gc_phase_cntr\[15\]
*751 core\.gc_phase_cntr\[1\]
*752 core\.gc_phase_cntr\[2\]
*753 core\.gc_phase_cntr\[3\]
*754 core\.gc_phase_cntr\[4\]
*755 core\.gc_phase_cntr\[5\]
*756 core\.gc_phase_cntr\[6\]
*757 core\.gc_phase_cntr\[7\]
*758 core\.gc_phase_cntr\[8\]
*759 core\.gc_phase_cntr\[9\]
*760 core\.gc_prescaler\[0\]
*761 core\.gc_prescaler\[1\]
*762 core\.gc_prescaler\[2\]
*763 core\.gc_prescaler\[3\]
*764 core\.nco\.acc_out\[0\]
*765 core\.nco\.acc_out\[10\]
*766 core\.nco\.acc_out\[11\]
*767 core\.nco\.acc_out\[12\]
*768 core\.nco\.acc_out\[13\]
*769 core\.nco\.acc_out\[14\]
*770 core\.nco\.acc_out\[1\]
*771 core\.nco\.acc_out\[2\]
*772 core\.nco\.acc_out\[3\]
*773 core\.nco\.acc_out\[4\]
*774 core\.nco\.acc_out\[5\]
*775 core\.nco\.acc_out\[6\]
*776 core\.nco\.acc_out\[7\]
*777 core\.nco\.acc_out\[8\]
*778 core\.nco\.acc_out\[9\]
*779 core\.nco\.cos
*780 core\.nco\.sin
*781 core\.nco_cos_reg
*782 core\.nco_sin_reg
*783 core\.noise\[0\]\[0\]
*784 core\.noise\[0\]\[1\]
*785 core\.noise\[0\]\[2\]
*786 core\.noise\[0\]\[3\]
*787 core\.noise\[0\]\[4\]
*788 core\.noise\[1\]\[0\]
*789 core\.noise\[1\]\[1\]
*790 core\.noise\[1\]\[2\]
*791 core\.noise\[1\]\[3\]
*792 core\.noise\[1\]\[4\]
*793 core\.noise\[2\]\[0\]
*794 core\.noise\[2\]\[1\]
*795 core\.noise\[2\]\[2\]
*796 core\.noise\[2\]\[3\]
*797 core\.noise\[2\]\[4\]
*798 core\.noise\[3\]\[0\]
*799 core\.noise\[3\]\[1\]
*800 core\.noise\[3\]\[2\]
*801 core\.noise\[3\]\[3\]
*802 core\.noise\[3\]\[4\]
*803 core\.noise_off_in
*804 core\.noise_start_out
*805 core\.prng_gen\[0\]\.prng\.lfsr_next\[0\]
*806 core\.prng_gen\[0\]\.prng\.lfsr_next\[10\]
*807 core\.prng_gen\[0\]\.prng\.lfsr_next\[11\]
*808 core\.prng_gen\[0\]\.prng\.lfsr_next\[12\]
*809 core\.prng_gen\[0\]\.prng\.lfsr_next\[13\]
*810 core\.prng_gen\[0\]\.prng\.lfsr_next\[14\]
*811 core\.prng_gen\[0\]\.prng\.lfsr_next\[15\]
*812 core\.prng_gen\[0\]\.prng\.lfsr_next\[16\]
*813 core\.prng_gen\[0\]\.prng\.lfsr_next\[17\]
*814 core\.prng_gen\[0\]\.prng\.lfsr_next\[18\]
*815 core\.prng_gen\[0\]\.prng\.lfsr_next\[19\]
*816 core\.prng_gen\[0\]\.prng\.lfsr_next\[1\]
*817 core\.prng_gen\[0\]\.prng\.lfsr_next\[20\]
*818 core\.prng_gen\[0\]\.prng\.lfsr_next\[21\]
*819 core\.prng_gen\[0\]\.prng\.lfsr_next\[22\]
*820 core\.prng_gen\[0\]\.prng\.lfsr_next\[23\]
*821 core\.prng_gen\[0\]\.prng\.lfsr_next\[24\]
*822 core\.prng_gen\[0\]\.prng\.lfsr_next\[25\]
*823 core\.prng_gen\[0\]\.prng\.lfsr_next\[26\]
*824 core\.prng_gen\[0\]\.prng\.lfsr_next\[27\]
*825 core\.prng_gen\[0\]\.prng\.lfsr_next\[28\]
*826 core\.prng_gen\[0\]\.prng\.lfsr_next\[29\]
*827 core\.prng_gen\[0\]\.prng\.lfsr_next\[2\]
*828 core\.prng_gen\[0\]\.prng\.lfsr_next\[30\]
*829 core\.prng_gen\[0\]\.prng\.lfsr_next\[3\]
*830 core\.prng_gen\[0\]\.prng\.lfsr_next\[4\]
*831 core\.prng_gen\[0\]\.prng\.lfsr_reg\[26\]
*832 core\.prng_gen\[0\]\.prng\.lfsr_reg\[27\]
*833 core\.prng_gen\[0\]\.prng\.lfsr_reg\[28\]
*834 core\.prng_gen\[0\]\.prng\.lfsr_reg\[29\]
*835 core\.prng_gen\[0\]\.prng\.lfsr_reg\[30\]
*836 core\.prng_gen\[0\]\.prng\.rst_in_n
*837 core\.prng_gen\[1\]\.prng\.lfsr_next\[0\]
*838 core\.prng_gen\[1\]\.prng\.lfsr_next\[10\]
*839 core\.prng_gen\[1\]\.prng\.lfsr_next\[11\]
*840 core\.prng_gen\[1\]\.prng\.lfsr_next\[12\]
*841 core\.prng_gen\[1\]\.prng\.lfsr_next\[13\]
*842 core\.prng_gen\[1\]\.prng\.lfsr_next\[14\]
*843 core\.prng_gen\[1\]\.prng\.lfsr_next\[15\]
*844 core\.prng_gen\[1\]\.prng\.lfsr_next\[16\]
*845 core\.prng_gen\[1\]\.prng\.lfsr_next\[17\]
*846 core\.prng_gen\[1\]\.prng\.lfsr_next\[18\]
*847 core\.prng_gen\[1\]\.prng\.lfsr_next\[19\]
*848 core\.prng_gen\[1\]\.prng\.lfsr_next\[1\]
*849 core\.prng_gen\[1\]\.prng\.lfsr_next\[20\]
*850 core\.prng_gen\[1\]\.prng\.lfsr_next\[21\]
*851 core\.prng_gen\[1\]\.prng\.lfsr_next\[22\]
*852 core\.prng_gen\[1\]\.prng\.lfsr_next\[23\]
*853 core\.prng_gen\[1\]\.prng\.lfsr_next\[24\]
*854 core\.prng_gen\[1\]\.prng\.lfsr_next\[25\]
*855 core\.prng_gen\[1\]\.prng\.lfsr_next\[26\]
*856 core\.prng_gen\[1\]\.prng\.lfsr_next\[27\]
*857 core\.prng_gen\[1\]\.prng\.lfsr_next\[28\]
*858 core\.prng_gen\[1\]\.prng\.lfsr_next\[29\]
*859 core\.prng_gen\[1\]\.prng\.lfsr_next\[2\]
*860 core\.prng_gen\[1\]\.prng\.lfsr_next\[30\]
*861 core\.prng_gen\[1\]\.prng\.lfsr_next\[3\]
*862 core\.prng_gen\[1\]\.prng\.lfsr_next\[4\]
*863 core\.prng_gen\[1\]\.prng\.lfsr_reg\[26\]
*864 core\.prng_gen\[1\]\.prng\.lfsr_reg\[27\]
*865 core\.prng_gen\[1\]\.prng\.lfsr_reg\[28\]
*866 core\.prng_gen\[1\]\.prng\.lfsr_reg\[29\]
*867 core\.prng_gen\[1\]\.prng\.lfsr_reg\[30\]
*868 core\.prng_gen\[2\]\.prng\.lfsr_next\[0\]
*869 core\.prng_gen\[2\]\.prng\.lfsr_next\[10\]
*870 core\.prng_gen\[2\]\.prng\.lfsr_next\[11\]
*871 core\.prng_gen\[2\]\.prng\.lfsr_next\[12\]
*872 core\.prng_gen\[2\]\.prng\.lfsr_next\[13\]
*873 core\.prng_gen\[2\]\.prng\.lfsr_next\[14\]
*874 core\.prng_gen\[2\]\.prng\.lfsr_next\[15\]
*875 core\.prng_gen\[2\]\.prng\.lfsr_next\[16\]
*876 core\.prng_gen\[2\]\.prng\.lfsr_next\[17\]
*877 core\.prng_gen\[2\]\.prng\.lfsr_next\[18\]
*878 core\.prng_gen\[2\]\.prng\.lfsr_next\[19\]
*879 core\.prng_gen\[2\]\.prng\.lfsr_next\[1\]
*880 core\.prng_gen\[2\]\.prng\.lfsr_next\[20\]
*881 core\.prng_gen\[2\]\.prng\.lfsr_next\[21\]
*882 core\.prng_gen\[2\]\.prng\.lfsr_next\[22\]
*883 core\.prng_gen\[2\]\.prng\.lfsr_next\[23\]
*884 core\.prng_gen\[2\]\.prng\.lfsr_next\[24\]
*885 core\.prng_gen\[2\]\.prng\.lfsr_next\[25\]
*886 core\.prng_gen\[2\]\.prng\.lfsr_next\[26\]
*887 core\.prng_gen\[2\]\.prng\.lfsr_next\[27\]
*888 core\.prng_gen\[2\]\.prng\.lfsr_next\[28\]
*889 core\.prng_gen\[2\]\.prng\.lfsr_next\[29\]
*890 core\.prng_gen\[2\]\.prng\.lfsr_next\[2\]
*891 core\.prng_gen\[2\]\.prng\.lfsr_next\[30\]
*892 core\.prng_gen\[2\]\.prng\.lfsr_next\[3\]
*893 core\.prng_gen\[2\]\.prng\.lfsr_next\[4\]
*894 core\.prng_gen\[2\]\.prng\.lfsr_reg\[26\]
*895 core\.prng_gen\[2\]\.prng\.lfsr_reg\[27\]
*896 core\.prng_gen\[2\]\.prng\.lfsr_reg\[28\]
*897 core\.prng_gen\[2\]\.prng\.lfsr_reg\[29\]
*898 core\.prng_gen\[2\]\.prng\.lfsr_reg\[30\]
*899 core\.prng_gen\[3\]\.prng\.lfsr_next\[0\]
*900 core\.prng_gen\[3\]\.prng\.lfsr_next\[10\]
*901 core\.prng_gen\[3\]\.prng\.lfsr_next\[11\]
*902 core\.prng_gen\[3\]\.prng\.lfsr_next\[12\]
*903 core\.prng_gen\[3\]\.prng\.lfsr_next\[13\]
*904 core\.prng_gen\[3\]\.prng\.lfsr_next\[14\]
*905 core\.prng_gen\[3\]\.prng\.lfsr_next\[15\]
*906 core\.prng_gen\[3\]\.prng\.lfsr_next\[16\]
*907 core\.prng_gen\[3\]\.prng\.lfsr_next\[17\]
*908 core\.prng_gen\[3\]\.prng\.lfsr_next\[18\]
*909 core\.prng_gen\[3\]\.prng\.lfsr_next\[19\]
*910 core\.prng_gen\[3\]\.prng\.lfsr_next\[1\]
*911 core\.prng_gen\[3\]\.prng\.lfsr_next\[20\]
*912 core\.prng_gen\[3\]\.prng\.lfsr_next\[21\]
*913 core\.prng_gen\[3\]\.prng\.lfsr_next\[22\]
*914 core\.prng_gen\[3\]\.prng\.lfsr_next\[23\]
*915 core\.prng_gen\[3\]\.prng\.lfsr_next\[24\]
*916 core\.prng_gen\[3\]\.prng\.lfsr_next\[25\]
*917 core\.prng_gen\[3\]\.prng\.lfsr_next\[26\]
*918 core\.prng_gen\[3\]\.prng\.lfsr_next\[27\]
*919 core\.prng_gen\[3\]\.prng\.lfsr_next\[28\]
*920 core\.prng_gen\[3\]\.prng\.lfsr_next\[29\]
*921 core\.prng_gen\[3\]\.prng\.lfsr_next\[2\]
*922 core\.prng_gen\[3\]\.prng\.lfsr_next\[30\]
*923 core\.prng_gen\[3\]\.prng\.lfsr_next\[3\]
*924 core\.prng_gen\[3\]\.prng\.lfsr_next\[4\]
*925 core\.prng_gen\[3\]\.prng\.lfsr_reg\[26\]
*926 core\.prng_gen\[3\]\.prng\.lfsr_reg\[27\]
*927 core\.prng_gen\[3\]\.prng\.lfsr_reg\[28\]
*928 core\.prng_gen\[3\]\.prng\.lfsr_reg\[29\]
*929 core\.prng_gen\[3\]\.prng\.lfsr_reg\[30\]
*930 core\.signal_off_in
*931 core\.sin_out
*932 core\.snr_in\[0\]
*933 core\.snr_in\[1\]
*934 core\.snr_in\[2\]
*935 core\.snr_in\[3\]
*936 core\.snr_in\[4\]
*937 core\.snr_in\[5\]
*938 core\.snr_in\[6\]
*939 core\.snr_in\[7\]
*940 core\.start_out
*941 net1
*942 net10
*943 net100
*944 net101
*945 net102
*946 net103
*947 net104
*948 net105
*949 net106
*950 net107
*951 net108
*952 net109
*953 net11
*954 net110
*955 net111
*956 net112
*957 net113
*958 net114
*959 net115
*960 net116
*961 net117
*962 net118
*963 net119
*964 net12
*965 net120
*966 net121
*967 net122
*968 net123
*969 net124
*970 net125
*971 net126
*972 net127
*973 net128
*974 net129
*975 net13
*976 net130
*977 net131
*978 net132
*979 net133
*980 net134
*981 net135
*982 net136
*983 net137
*984 net138
*985 net139
*986 net14
*987 net140
*988 net141
*989 net142
*990 net143
*991 net144
*992 net145
*993 net146
*994 net147
*995 net148
*996 net149
*997 net15
*998 net150
*999 net151
*1000 net152
*1001 net153
*1002 net154
*1003 net155
*1004 net156
*1005 net157
*1006 net158
*1007 net159
*1008 net16
*1009 net160
*1010 net161
*1011 net162
*1012 net163
*1013 net164
*1014 net165
*1015 net166
*1016 net167
*1017 net168
*1018 net169
*1019 net17
*1020 net170
*1021 net171
*1022 net172
*1023 net173
*1024 net174
*1025 net175
*1026 net176
*1027 net177
*1028 net178
*1029 net179
*1030 net18
*1031 net180
*1032 net181
*1033 net182
*1034 net183
*1035 net184
*1036 net185
*1037 net186
*1038 net187
*1039 net188
*1040 net189
*1041 net19
*1042 net190
*1043 net191
*1044 net192
*1045 net193
*1046 net194
*1047 net195
*1048 net196
*1049 net197
*1050 net198
*1051 net199
*1052 net2
*1053 net20
*1054 net200
*1055 net201
*1056 net202
*1057 net203
*1058 net204
*1059 net205
*1060 net206
*1061 net207
*1062 net208
*1063 net209
*1064 net21
*1065 net210
*1066 net211
*1067 net212
*1068 net213
*1069 net214
*1070 net215
*1071 net216
*1072 net217
*1073 net218
*1074 net219
*1075 net22
*1076 net220
*1077 net221
*1078 net222
*1079 net223
*1080 net224
*1081 net23
*1082 net24
*1083 net25
*1084 net26
*1085 net27
*1086 net28
*1087 net29
*1088 net3
*1089 net30
*1090 net31
*1091 net32
*1092 net33
*1093 net34
*1094 net35
*1095 net36
*1096 net37
*1097 net4
*1098 net5
*1099 net58
*1100 net59
*1101 net6
*1102 net60
*1103 net61
*1104 net62
*1105 net63
*1106 net64
*1107 net65
*1108 net66
*1109 net67
*1110 net68
*1111 net69
*1112 net7
*1113 net70
*1114 net71
*1115 net72
*1116 net73
*1117 net74
*1118 net75
*1119 net76
*1120 net77
*1121 net78
*1122 net79
*1123 net8
*1124 net80
*1125 net81
*1126 net82
*1127 net83
*1128 net84
*1129 net85
*1130 net86
*1131 net87
*1132 net88
*1133 net89
*1134 net9
*1135 net90
*1136 net91
*1137 net92
*1138 net93
*1139 net94
*1140 net95
*1141 net96
*1142 net97
*1143 net98
*1144 net99
*1145 reg_bank\.addr\[0\]
*1146 reg_bank\.addr\[1\]
*1147 reg_bank\.addr\[2\]
*1148 reg_bank\.current_state\[0\]
*1149 reg_bank\.current_state\[1\]
*1150 reg_bank\.current_state\[2\]
*1151 reg_bank\.next_state\[0\]
*1152 reg_bank\.next_state\[1\]
*1153 reg_bank\.next_state\[2\]
*1154 reg_bank\.rx_data\[0\]
*1155 reg_bank\.rx_data\[1\]
*1156 reg_bank\.rx_data\[2\]
*1157 reg_bank\.rx_data\[3\]
*1158 reg_bank\.rx_data\[4\]
*1159 reg_bank\.rx_data\[5\]
*1160 reg_bank\.rx_data\[6\]
*1161 reg_bank\.rx_data\[7\]
*1162 reg_bank\.u_rx\.cntr\[0\]
*1163 reg_bank\.u_rx\.cntr\[1\]
*1164 reg_bank\.u_rx\.cntr\[2\]
*1165 reg_bank\.u_rx\.cntr\[3\]
*1166 reg_bank\.u_rx\.cntr\[4\]
*1167 reg_bank\.u_rx\.cntr\[5\]
*1168 reg_bank\.u_rx\.cntr\[6\]
*1169 reg_bank\.u_rx\.cntr\[7\]
*1170 reg_bank\.u_rx\.cntr_tc
*1171 reg_bank\.u_rx\.current_state\[0\]
*1172 reg_bank\.u_rx\.current_state\[1\]
*1173 reg_bank\.u_rx\.current_state\[2\]
*1174 reg_bank\.u_rx\.next_state\[0\]
*1175 reg_bank\.u_rx\.next_state\[1\]
*1176 reg_bank\.u_rx\.next_state\[2\]
*1177 reg_bank\.u_rx\.rx_bit_cntr\[0\]
*1178 reg_bank\.u_rx\.rx_bit_cntr\[1\]
*1179 reg_bank\.u_rx\.rx_bit_cntr\[2\]
*1180 reg_bank\.u_rx\.rx_data_sync
*1181 reg_bank\.u_rx\.rx_meta_reg\[0\]
*1182 reg_bank\.u_rx\.rx_shift_done
*1183 ANTENNA_1
*1184 FILLER_0_0_113
*1185 FILLER_0_0_139
*1186 FILLER_0_0_161
*1187 FILLER_0_0_167
*1188 FILLER_0_0_169
*1189 FILLER_0_0_190
*1190 FILLER_0_0_225
*1191 FILLER_0_0_249
*1192 FILLER_0_0_281
*1193 FILLER_0_0_29
*1194 FILLER_0_0_3
*1195 FILLER_0_0_303
*1196 FILLER_0_0_307
*1197 FILLER_0_0_329
*1198 FILLER_0_0_333
*1199 FILLER_0_0_51
*1200 FILLER_0_0_55
*1201 FILLER_0_10_129
*1202 FILLER_0_10_139
*1203 FILLER_0_10_144
*1204 FILLER_0_10_156
*1205 FILLER_0_10_170
*1206 FILLER_0_10_176
*1207 FILLER_0_10_180
*1208 FILLER_0_10_188
*1209 FILLER_0_10_24
*1210 FILLER_0_10_261
*1211 FILLER_0_10_284
*1212 FILLER_0_10_3
*1213 FILLER_0_10_304
*1214 FILLER_0_10_45
*1215 FILLER_0_10_74
*1216 FILLER_0_10_83
*1217 FILLER_0_10_85
*1218 FILLER_0_11_137
*1219 FILLER_0_11_144
*1220 FILLER_0_11_156
*1221 FILLER_0_11_164
*1222 FILLER_0_11_174
*1223 FILLER_0_11_178
*1224 FILLER_0_11_185
*1225 FILLER_0_11_194
*1226 FILLER_0_11_205
*1227 FILLER_0_11_301
*1228 FILLER_0_11_55
*1229 FILLER_0_11_57
*1230 FILLER_0_12_108
*1231 FILLER_0_12_135
*1232 FILLER_0_12_154
*1233 FILLER_0_12_179
*1234 FILLER_0_12_191
*1235 FILLER_0_12_195
*1236 FILLER_0_12_202
*1237 FILLER_0_12_208
*1238 FILLER_0_12_251
*1239 FILLER_0_12_29
*1240 FILLER_0_12_3
*1241 FILLER_0_12_333
*1242 FILLER_0_12_85
*1243 FILLER_0_13_109
*1244 FILLER_0_13_149
*1245 FILLER_0_13_181
*1246 FILLER_0_13_189
*1247 FILLER_0_13_196
*1248 FILLER_0_13_219
*1249 FILLER_0_13_223
*1250 FILLER_0_13_225
*1251 FILLER_0_13_24
*1252 FILLER_0_13_279
*1253 FILLER_0_13_3
*1254 FILLER_0_13_308
*1255 FILLER_0_13_47
*1256 FILLER_0_13_83
*1257 FILLER_0_13_97
*1258 FILLER_0_14_114
*1259 FILLER_0_14_118
*1260 FILLER_0_14_139
*1261 FILLER_0_14_141
*1262 FILLER_0_14_173
*1263 FILLER_0_14_189
*1264 FILLER_0_14_195
*1265 FILLER_0_14_24
*1266 FILLER_0_14_268
*1267 FILLER_0_14_286
*1268 FILLER_0_14_29
*1269 FILLER_0_14_3
*1270 FILLER_0_14_46
*1271 FILLER_0_14_67
*1272 FILLER_0_14_7
*1273 FILLER_0_15_133
*1274 FILLER_0_15_145
*1275 FILLER_0_15_155
*1276 FILLER_0_15_166
*1277 FILLER_0_15_169
*1278 FILLER_0_15_177
*1279 FILLER_0_15_228
*1280 FILLER_0_15_3
*1281 FILLER_0_15_333
*1282 FILLER_0_15_54
*1283 FILLER_0_15_63
*1284 FILLER_0_15_7
*1285 FILLER_0_15_75
*1286 FILLER_0_16_123
*1287 FILLER_0_16_135
*1288 FILLER_0_16_226
*1289 FILLER_0_16_253
*1290 FILLER_0_16_296
*1291 FILLER_0_16_3
*1292 FILLER_0_16_306
*1293 FILLER_0_17_101
*1294 FILLER_0_17_116
*1295 FILLER_0_17_130
*1296 FILLER_0_17_162
*1297 FILLER_0_17_21
*1298 FILLER_0_17_225
*1299 FILLER_0_17_247
*1300 FILLER_0_17_251
*1301 FILLER_0_17_279
*1302 FILLER_0_17_295
*1303 FILLER_0_17_3
*1304 FILLER_0_17_45
*1305 FILLER_0_17_62
*1306 FILLER_0_17_69
*1307 FILLER_0_18_103
*1308 FILLER_0_18_107
*1309 FILLER_0_18_11
*1310 FILLER_0_18_150
*1311 FILLER_0_18_164
*1312 FILLER_0_18_168
*1313 FILLER_0_18_189
*1314 FILLER_0_18_195
*1315 FILLER_0_18_249
*1316 FILLER_0_18_253
*1317 FILLER_0_18_257
*1318 FILLER_0_18_26
*1319 FILLER_0_18_3
*1320 FILLER_0_18_309
*1321 FILLER_0_18_321
*1322 FILLER_0_18_47
*1323 FILLER_0_18_57
*1324 FILLER_0_18_69
*1325 FILLER_0_18_83
*1326 FILLER_0_18_88
*1327 FILLER_0_19_11
*1328 FILLER_0_19_111
*1329 FILLER_0_19_113
*1330 FILLER_0_19_124
*1331 FILLER_0_19_128
*1332 FILLER_0_19_155
*1333 FILLER_0_19_167
*1334 FILLER_0_19_198
*1335 FILLER_0_19_204
*1336 FILLER_0_19_223
*1337 FILLER_0_19_236
*1338 FILLER_0_19_244
*1339 FILLER_0_19_252
*1340 FILLER_0_19_272
*1341 FILLER_0_19_3
*1342 FILLER_0_19_315
*1343 FILLER_0_19_44
*1344 FILLER_0_19_48
*1345 FILLER_0_19_67
*1346 FILLER_0_1_169
*1347 FILLER_0_1_173
*1348 FILLER_0_1_222
*1349 FILLER_0_1_245
*1350 FILLER_0_1_275
*1351 FILLER_0_1_279
*1352 FILLER_0_1_3
*1353 FILLER_0_1_329
*1354 FILLER_0_1_78
*1355 FILLER_0_20_109
*1356 FILLER_0_20_130
*1357 FILLER_0_20_139
*1358 FILLER_0_20_150
*1359 FILLER_0_20_162
*1360 FILLER_0_20_166
*1361 FILLER_0_20_190
*1362 FILLER_0_20_197
*1363 FILLER_0_20_248
*1364 FILLER_0_20_3
*1365 FILLER_0_20_312
*1366 FILLER_0_20_334
*1367 FILLER_0_20_35
*1368 FILLER_0_20_58
*1369 FILLER_0_21_107
*1370 FILLER_0_21_111
*1371 FILLER_0_21_113
*1372 FILLER_0_21_117
*1373 FILLER_0_21_129
*1374 FILLER_0_21_151
*1375 FILLER_0_21_158
*1376 FILLER_0_21_166
*1377 FILLER_0_21_169
*1378 FILLER_0_21_243
*1379 FILLER_0_21_26
*1380 FILLER_0_21_279
*1381 FILLER_0_21_281
*1382 FILLER_0_21_3
*1383 FILLER_0_21_55
*1384 FILLER_0_21_68
*1385 FILLER_0_21_79
*1386 FILLER_0_22_103
*1387 FILLER_0_22_118
*1388 FILLER_0_22_122
*1389 FILLER_0_22_126
*1390 FILLER_0_22_134
*1391 FILLER_0_22_141
*1392 FILLER_0_22_151
*1393 FILLER_0_22_183
*1394 FILLER_0_22_191
*1395 FILLER_0_22_235
*1396 FILLER_0_22_243
*1397 FILLER_0_22_279
*1398 FILLER_0_22_287
*1399 FILLER_0_22_3
*1400 FILLER_0_22_318
*1401 FILLER_0_22_72
*1402 FILLER_0_22_93
*1403 FILLER_0_23_101
*1404 FILLER_0_23_11
*1405 FILLER_0_23_113
*1406 FILLER_0_23_133
*1407 FILLER_0_23_15
*1408 FILLER_0_23_155
*1409 FILLER_0_23_192
*1410 FILLER_0_23_231
*1411 FILLER_0_23_239
*1412 FILLER_0_23_275
*1413 FILLER_0_23_279
*1414 FILLER_0_23_281
*1415 FILLER_0_23_285
*1416 FILLER_0_23_292
*1417 FILLER_0_23_3
*1418 FILLER_0_23_306
*1419 FILLER_0_23_334
*1420 FILLER_0_23_46
*1421 FILLER_0_23_57
*1422 FILLER_0_24_139
*1423 FILLER_0_24_147
*1424 FILLER_0_24_153
*1425 FILLER_0_24_206
*1426 FILLER_0_24_213
*1427 FILLER_0_24_223
*1428 FILLER_0_24_247
*1429 FILLER_0_24_251
*1430 FILLER_0_24_253
*1431 FILLER_0_24_277
*1432 FILLER_0_24_29
*1433 FILLER_0_24_3
*1434 FILLER_0_24_45
*1435 FILLER_0_24_62
*1436 FILLER_0_25_101
*1437 FILLER_0_25_11
*1438 FILLER_0_25_133
*1439 FILLER_0_25_139
*1440 FILLER_0_25_149
*1441 FILLER_0_25_157
*1442 FILLER_0_25_199
*1443 FILLER_0_25_222
*1444 FILLER_0_25_274
*1445 FILLER_0_25_3
*1446 FILLER_0_25_334
*1447 FILLER_0_25_48
*1448 FILLER_0_25_60
*1449 FILLER_0_25_68
*1450 FILLER_0_26_101
*1451 FILLER_0_26_125
*1452 FILLER_0_26_131
*1453 FILLER_0_26_139
*1454 FILLER_0_26_15
*1455 FILLER_0_26_162
*1456 FILLER_0_26_19
*1457 FILLER_0_26_224
*1458 FILLER_0_26_230
*1459 FILLER_0_26_247
*1460 FILLER_0_26_251
*1461 FILLER_0_26_253
*1462 FILLER_0_26_26
*1463 FILLER_0_26_265
*1464 FILLER_0_26_277
*1465 FILLER_0_26_3
*1466 FILLER_0_26_307
*1467 FILLER_0_26_55
*1468 FILLER_0_26_67
*1469 FILLER_0_26_73
*1470 FILLER_0_26_97
*1471 FILLER_0_27_122
*1472 FILLER_0_27_134
*1473 FILLER_0_27_213
*1474 FILLER_0_27_221
*1475 FILLER_0_27_225
*1476 FILLER_0_27_240
*1477 FILLER_0_27_252
*1478 FILLER_0_27_264
*1479 FILLER_0_27_27
*1480 FILLER_0_27_279
*1481 FILLER_0_27_3
*1482 FILLER_0_27_301
*1483 FILLER_0_27_307
*1484 FILLER_0_27_37
*1485 FILLER_0_27_49
*1486 FILLER_0_27_55
*1487 FILLER_0_27_66
*1488 FILLER_0_27_77
*1489 FILLER_0_27_89
*1490 FILLER_0_28_116
*1491 FILLER_0_28_128
*1492 FILLER_0_28_189
*1493 FILLER_0_28_195
*1494 FILLER_0_28_215
*1495 FILLER_0_28_221
*1496 FILLER_0_28_29
*1497 FILLER_0_28_299
*1498 FILLER_0_28_3
*1499 FILLER_0_28_333
*1500 FILLER_0_28_48
*1501 FILLER_0_28_76
*1502 FILLER_0_28_85
*1503 FILLER_0_28_93
*1504 FILLER_0_29_11
*1505 FILLER_0_29_111
*1506 FILLER_0_29_118
*1507 FILLER_0_29_130
*1508 FILLER_0_29_166
*1509 FILLER_0_29_172
*1510 FILLER_0_29_176
*1511 FILLER_0_29_200
*1512 FILLER_0_29_208
*1513 FILLER_0_29_241
*1514 FILLER_0_29_264
*1515 FILLER_0_29_272
*1516 FILLER_0_29_287
*1517 FILLER_0_29_3
*1518 FILLER_0_29_334
*1519 FILLER_0_29_38
*1520 FILLER_0_29_43
*1521 FILLER_0_29_57
*1522 FILLER_0_29_89
*1523 FILLER_0_2_141
*1524 FILLER_0_2_145
*1525 FILLER_0_2_194
*1526 FILLER_0_2_197
*1527 FILLER_0_2_239
*1528 FILLER_0_2_24
*1529 FILLER_0_2_273
*1530 FILLER_0_2_277
*1531 FILLER_0_2_29
*1532 FILLER_0_2_3
*1533 FILLER_0_2_306
*1534 FILLER_0_2_309
*1535 FILLER_0_2_334
*1536 FILLER_0_2_83
*1537 FILLER_0_2_96
*1538 FILLER_0_30_127
*1539 FILLER_0_30_134
*1540 FILLER_0_30_139
*1541 FILLER_0_30_141
*1542 FILLER_0_30_158
*1543 FILLER_0_30_170
*1544 FILLER_0_30_182
*1545 FILLER_0_30_187
*1546 FILLER_0_30_195
*1547 FILLER_0_30_197
*1548 FILLER_0_30_205
*1549 FILLER_0_30_219
*1550 FILLER_0_30_227
*1551 FILLER_0_30_239
*1552 FILLER_0_30_270
*1553 FILLER_0_30_278
*1554 FILLER_0_30_287
*1555 FILLER_0_30_291
*1556 FILLER_0_30_298
*1557 FILLER_0_30_3
*1558 FILLER_0_30_333
*1559 FILLER_0_30_48
*1560 FILLER_0_30_7
*1561 FILLER_0_30_83