*SPEF "ieee 1481-1999"
*DESIGN "tt_um_maheredia"
*DATE "11:57:19 Saturday June 01, 2024"
*VENDOR "The OpenROAD Project"
*PROGRAM "OpenROAD"
*VERSION "da0053d7b0014ab9c87ea148875ff6c2a0f9b658"
*DESIGN_FLOW "NAME_SCOPE LOCAL" "PIN_CAP NONE"
*DIVIDER /
*DELIMITER :
*BUS_DELIMITER []
*T_UNIT 1 NS
*C_UNIT 1 PF
*R_UNIT 1 OHM
*L_UNIT 1 HENRY

*NAME_MAP
*3 clk
*4 ena
*5 rst_n
*6 ui_in[0]
*7 ui_in[1]
*8 ui_in[2]
*9 ui_in[3]
*10 ui_in[4]
*11 ui_in[5]
*12 ui_in[6]
*13 ui_in[7]
*14 uio_in[0]
*15 uio_in[1]
*16 uio_in[2]
*17 uio_in[3]
*18 uio_in[4]
*19 uio_in[5]
*20 uio_in[6]
*21 uio_in[7]
*22 net39
*23 net40
*24 net41
*25 net42
*26 net43
*27 net44
*28 net45
*29 net46
*30 net47
*31 net48
*32 net49
*33 net50
*34 net51
*35 net52
*36 net53
*37 net54
*38 uo_out[0]
*39 uo_out[1]
*40 uo_out[2]
*41 uo_out[3]
*42 uo_out[4]
*43 net55
*44 net56
*45 net57
*46 _0000_
*47 _0001_
*48 _0002_
*49 _0003_
*50 _0004_
*51 _0005_
*52 _0006_
*53 _0007_
*54 _0008_
*55 _0009_
*56 _0010_
*57 _0011_
*58 _0012_
*59 _0013_
*60 _0014_
*61 _0015_
*62 _0016_
*63 _0017_
*64 _0018_
*65 _0019_
*66 _0020_
*67 _0021_
*68 _0022_
*69 _0023_
*70 _0024_
*71 _0025_
*72 _0026_
*73 _0027_
*74 _0028_
*75 _0029_
*76 _0030_
*77 _0031_
*78 _0032_
*79 _0033_
*80 _0034_
*81 _0035_
*82 _0036_
*83 _0037_
*84 _0038_
*85 _0039_
*86 _0040_
*87 _0041_
*88 _0042_
*89 _0043_
*90 _0044_
*91 _0045_
*92 _0046_
*93 _0047_
*94 _0048_
*95 _0049_
*96 _0050_
*97 _0051_
*98 _0052_
*99 _0053_
*100 _0054_
*101 _0055_
*102 _0056_
*103 _0057_
*104 _0058_
*105 _0059_
*106 _0060_
*107 _0061_
*108 _0062_
*109 _0063_
*110 _0064_
*111 _0065_
*112 _0066_
*113 _0067_
*114 _0068_
*115 _0069_
*116 _0070_
*117 _0071_
*118 _0072_
*119 _0073_
*120 _0074_
*121 _0075_
*122 _0076_
*123 _0077_
*124 _0078_
*125 _0079_
*126 _0080_
*127 _0081_
*128 _0082_
*129 _0083_
*130 _0084_
*131 _0085_
*132 _0086_
*133 _0087_
*134 _0088_
*135 _0089_
*136 _0090_
*137 _0091_
*138 _0092_
*139 _0093_
*140 _0094_
*141 _0095_
*142 _0096_
*143 _0097_
*144 _0098_
*145 _0099_
*146 _0100_
*147 _0101_
*148 _0102_
*149 _0103_
*150 _0104_
*151 _0105_
*152 _0106_
*153 _0107_
*154 _0108_
*155 _0109_
*156 _0110_
*157 _0111_
*158 _0112_
*159 _0113_
*160 _0114_
*161 _0115_
*162 _0116_
*163 _0117_
*164 _0118_
*165 _0119_
*166 _0120_
*167 _0121_
*168 _0122_
*169 _0123_
*170 _0124_
*171 _0125_
*172 _0126_
*173 _0127_
*174 _0128_
*175 _0129_
*176 _0130_
*177 _0131_
*178 _0132_
*179 _0133_
*180 _0134_
*181 _0135_
*182 _0136_
*183 _0137_
*184 _0138_
*185 _0139_
*186 _0140_
*187 _0141_
*188 _0142_
*189 _0143_
*190 _0144_
*191 _0145_
*192 _0146_
*193 _0147_
*194 _0148_
*195 _0149_
*196 _0150_
*197 _0151_
*198 _0152_
*199 _0153_
*200 _0154_
*201 _0155_
*202 _0156_
*203 _0157_
*204 _0158_
*205 _0159_
*206 _0160_
*207 _0161_
*208 _0162_
*209 _0163_
*210 _0164_
*211 _0165_
*212 _0166_
*213 _0167_
*214 _0168_
*215 _0169_
*216 _0170_
*217 _0171_
*218 _0172_
*219 _0173_
*220 _0174_
*221 _0175_
*222 _0176_
*223 _0177_
*224 _0178_
*225 _0179_
*226 _0180_
*227 _0181_
*228 _0182_
*229 _0183_
*230 _0184_
*231 _0185_
*232 _0186_
*233 _0187_
*234 _0188_
*235 _0189_
*236 _0190_
*237 _0191_
*238 _0192_
*239 _0193_
*240 _0194_
*241 _0195_
*242 _0196_
*243 _0197_
*244 _0198_
*245 _0199_
*246 _0200_
*247 _0201_
*248 _0202_
*249 _0203_
*250 _0204_
*251 _0205_
*252 _0206_
*253 _0207_
*254 _0208_
*255 _0209_
*256 _0210_
*257 _0211_
*258 _0212_
*259 _0213_
*260 _0214_
*261 _0215_
*262 _0216_
*263 _0217_
*264 _0218_
*265 _0219_
*266 _0220_
*267 _0221_
*268 _0222_
*269 _0223_
*270 _0224_
*271 _0225_
*272 _0226_
*273 _0227_
*274 _0228_
*275 _0229_
*276 _0230_
*277 _0231_
*278 _0232_
*279 _0233_
*280 _0234_
*281 _0235_
*282 _0236_
*283 _0237_
*284 _0238_
*285 _0239_
*286 _0240_
*287 _0241_
*288 _0242_
*289 _0243_
*290 _0244_
*291 _0245_
*292 _0246_
*293 _0247_
*294 _0248_
*295 _0249_
*296 _0250_
*297 _0251_
*298 _0252_
*299 _0253_
*300 _0254_
*301 _0255_
*302 _0256_
*303 _0257_
*304 _0258_
*305 _0259_
*306 _0260_
*307 _0261_
*308 _0262_
*309 _0263_
*310 _0264_
*311 _0265_
*312 _0266_
*313 _0267_
*314 _0268_
*315 _0269_
*316 _0270_
*317 _0271_
*318 _0272_
*319 _0273_
*320 _0274_
*321 _0275_
*322 _0276_
*323 _0277_
*324 _0278_
*325 _0279_
*326 _0280_
*327 _0281_
*328 _0282_
*329 _0283_
*330 _0284_
*331 _0285_
*332 _0286_
*333 _0287_
*334 _0288_
*335 _0289_
*336 _0290_
*337 _0291_
*338 _0292_
*339 _0293_
*340 _0294_
*341 _0295_
*342 _0296_
*343 _0297_
*344 _0298_
*345 _0299_
*346 _0300_
*347 _0301_
*348 _0302_
*349 _0303_
*350 _0304_
*351 _0305_
*352 _0306_
*353 _0307_
*354 _0308_
*355 _0309_
*356 _0310_
*357 _0311_
*358 _0312_
*359 _0313_
*360 _0314_
*361 _0315_
*362 _0316_
*363 _0317_
*364 _0318_
*365 _0319_
*366 _0320_
*367 _0321_
*368 _0322_
*369 _0323_
*370 _0324_
*371 _0325_
*372 _0326_
*373 _0327_
*374 _0328_
*375 _0329_
*376 _0330_
*377 _0331_
*378 _0332_
*379 _0333_
*380 _0334_
*381 _0335_
*382 _0336_
*383 _0337_
*384 _0338_
*385 _0339_
*386 _0340_
*387 _0341_
*388 _0342_
*389 _0343_
*390 _0344_
*391 _0345_
*392 _0346_
*393 _0347_
*394 _0348_
*395 _0349_
*396 _0350_
*397 _0351_
*398 _0352_
*399 _0353_
*400 _0354_
*401 _0355_
*402 _0356_
*403 _0357_
*404 _0358_
*405 _0359_
*406 _0360_
*407 _0361_
*408 _0362_
*409 _0363_
*410 _0364_
*411 _0365_
*412 _0366_
*413 _0367_
*414 _0368_
*415 _0369_
*416 _0370_
*417 _0371_
*418 _0372_
*419 _0373_
*420 _0374_
*421 _0375_
*422 _0376_
*423 _0377_
*424 _0378_
*425 _0379_
*426 _0380_
*427 _0381_
*428 _0382_
*429 _0383_
*430 _0384_
*431 _0385_
*432 _0386_
*433 _0387_
*434 _0388_
*435 _0389_
*436 _0390_
*437 _0391_
*438 _0392_
*439 _0393_
*440 _0394_
*441 _0395_
*442 _0396_
*443 _0397_
*444 _0398_
*445 _0399_
*446 _0400_
*447 _0401_
*448 _0402_
*449 _0403_
*450 _0404_
*451 _0405_
*452 _0406_
*453 _0407_
*454 _0408_
*455 _0409_
*456 _0410_
*457 _0411_
*458 _0412_
*459 _0413_
*460 _0414_
*461 _0415_
*462 _0416_
*463 _0417_
*464 _0418_
*465 _0419_
*466 _0420_
*467 _0421_
*468 _0422_
*469 _0423_
*470 _0424_
*471 _0425_
*472 _0426_
*473 _0427_
*474 _0428_
*475 _0429_
*476 _0430_
*477 _0431_
*478 _0432_
*479 _0433_
*480 _0434_
*481 _0435_
*482 _0436_
*483 _0437_
*484 _0438_
*485 _0439_
*486 _0440_
*487 _0441_
*488 _0442_
*489 _0443_
*490 _0444_
*491 _0445_
*492 _0446_
*493 _0447_
*494 _0448_
*495 _0449_
*496 _0450_
*497 _0451_
*498 _0452_
*499 _0453_
*500 _0454_
*501 _0455_
*502 _0456_
*503 _0457_
*504 _0458_
*505 _0459_
*506 _0460_
*507 _0461_
*508 _0462_
*509 _0463_
*510 _0464_
*511 _0465_
*512 _0466_
*513 _0467_
*514 _0468_
*515 _0469_
*516 _0470_
*517 _0471_
*518 _0472_
*519 _0473_
*520 _0474_
*521 _0475_
*522 _0476_
*523 _0477_
*524 _0478_
*525 _0479_
*526 _0480_
*527 _0481_
*528 _0482_
*529 _0483_
*530 _0484_
*531 _0485_
*532 _0486_
*533 _0487_
*534 _0488_
*535 _0489_
*536 _0490_
*537 _0491_
*538 _0492_
*539 _0493_
*540 _0494_
*541 _0495_
*542 _0496_
*543 _0497_
*544 _0498_
*545 _0499_
*546 _0500_
*547 _0501_
*548 _0502_
*549 _0503_
*550 _0504_
*551 _0505_
*552 _0506_
*553 _0507_
*554 _0508_
*555 _0509_
*556 _0510_
*557 _0511_
*558 _0512_
*559 _0513_
*560 _0514_
*561 _0515_
*562 _0516_
*563 _0517_
*564 _0518_
*565 _0519_
*566 _0520_
*567 _0521_
*568 _0522_
*569 _0523_
*570 _0524_
*571 _0525_
*572 _0526_
*573 _0527_
*574 _0528_
*575 _0529_
*576 _0530_
*577 _0531_
*578 _0532_
*579 _0533_
*580 _0534_
*581 _0535_
*582 _0536_
*583 _0537_
*584 _0538_
*585 _0539_
*586 _0540_
*587 _0541_
*588 _0542_
*589 _0543_
*590 _0544_
*591 _0545_
*592 _0546_
*593 _0547_
*594 _0548_
*595 _0549_
*596 _0550_
*597 _0551_
*598 _0552_
*599 _0553_
*600 _0554_
*601 _0555_
*602 _0556_
*603 _0557_
*604 _0558_
*605 _0559_
*606 _0560_
*607 _0561_
*608 _0562_
*609 _0563_
*610 _0564_
*611 _0565_
*612 _0566_
*613 _0567_
*614 _0568_
*615 _0569_
*616 _0570_
*617 _0571_
*618 _0572_
*619 _0573_
*620 _0574_
*621 _0575_
*622 _0576_
*623 _0577_
*624 _0578_
*625 _0579_
*626 _0580_
*627 _0581_
*628 _0582_
*629 _0583_
*630 _0584_
*631 _0585_
*632 _0586_
*633 _0587_
*634 _0588_
*635 _0589_
*636 _0590_
*637 _0591_
*638 _0592_
*639 _0593_
*640 _0594_
*641 _0595_
*642 _0596_
*643 _0597_
*644 _0598_
*645 _0599_
*646 _0600_
*647 _0601_
*648 _0602_
*649 _0603_
*650 _0604_
*651 _0605_
*652 _0606_
*653 _0607_
*654 _0608_
*655 _0609_
*656 _0610_
*657 _0611_
*658 _0612_
*659 _0613_
*660 _0614_
*661 _0615_
*662 _0616_
*663 _0617_
*664 _0618_
*665 _0619_
*666 _0620_
*667 _0621_
*668 _0622_
*669 _0623_
*670 _0624_
*671 _0625_
*672 _0626_
*673 _0627_
*674 _0628_
*675 clknet_0_clk
*676 clknet_1_0__leaf_clk
*677 clknet_1_1__leaf_clk
*678 clknet_leaf_0_clk
*679 clknet_leaf_10_clk
*680 clknet_leaf_11_clk
*681 clknet_leaf_12_clk
*682 clknet_leaf_13_clk
*683 clknet_leaf_1_clk
*684 clknet_leaf_2_clk
*685 clknet_leaf_3_clk
*686 clknet_leaf_4_clk
*687 clknet_leaf_5_clk
*688 clknet_leaf_6_clk
*689 clknet_leaf_7_clk
*690 clknet_leaf_8_clk
*691 clknet_leaf_9_clk
*692 core\.ca_phase_in\[0\]
*693 core\.ca_phase_in\[10\]
*694 core\.ca_phase_in\[11\]
*695 core\.ca_phase_in\[12\]
*696 core\.ca_phase_in\[13\]
*697 core\.ca_phase_in\[14\]
*698 core\.ca_phase_in\[15\]
*699 core\.ca_phase_in\[1\]
*700 core\.ca_phase_in\[2\]
*701 core\.ca_phase_in\[3\]
*702 core\.ca_phase_in\[4\]
*703 core\.ca_phase_in\[5\]
*704 core\.ca_phase_in\[6\]
*705 core\.ca_phase_in\[7\]
*706 core\.ca_phase_in\[8\]
*707 core\.ca_phase_in\[9\]
*708 core\.cos_clean
*709 core\.doppler_in\[0\]
*710 core\.doppler_in\[1\]
*711 core\.doppler_in\[2\]
*712 core\.doppler_in\[3\]
*713 core\.doppler_in\[4\]
*714 core\.doppler_in\[5\]
*715 core\.doppler_in\[6\]
*716 core\.doppler_in\[7\]
*717 core\.ena_in
*718 core\.gc
*719 core\.gc_gen\.g1\[0\]
*720 core\.gc_gen\.g1\[1\]
*721 core\.gc_gen\.g1\[2\]
*722 core\.gc_gen\.g1\[3\]
*723 core\.gc_gen\.g1\[4\]
*724 core\.gc_gen\.g1\[5\]
*725 core\.gc_gen\.g1\[6\]
*726 core\.gc_gen\.g1\[7\]
*727 core\.gc_gen\.g1\[8\]
*728 core\.gc_gen\.g1\[9\]
*729 core\.gc_gen\.g2\[0\]
*730 core\.gc_gen\.g2\[1\]
*731 core\.gc_gen\.g2\[2\]
*732 core\.gc_gen\.g2\[3\]
*733 core\.gc_gen\.g2\[4\]
*734 core\.gc_gen\.g2\[5\]
*735 core\.gc_gen\.g2\[6\]
*736 core\.gc_gen\.g2\[7\]
*737 core\.gc_gen\.g2\[8\]
*738 core\.gc_gen\.g2\[9\]
*739 core\.gc_gen\.gc
*740 core\.gc_gen\.sat_sel_in\[0\]
*741 core\.gc_gen\.sat_sel_in\[1\]
*742 core\.gc_gen\.sat_sel_in\[2\]
*743 core\.gc_gen\.sat_sel_in\[3\]
*744 core\.gc_gen\.sat_sel_in\[4\]
*745 core\.gc_phase_cntr\[0\]
*746 core\.gc_phase_cntr\[10\]
*747 core\.gc_phase_cntr\[11\]
*748 core\.gc_phase_cntr\[12\]
*749 core\.gc_phase_cntr\[13\]
*750 core\.gc_phase_cntr\[14\]
*751 core\.gc_phase_cntr\[15\]
*752 core\.gc_phase_cntr\[1\]
*753 core\.gc_phase_cntr\[2\]
*754 core\.gc_phase_cntr\[3\]
*755 core\.gc_phase_cntr\[4\]
*756 core\.gc_phase_cntr\[5\]
*757 core\.gc_phase_cntr\[6\]
*758 core\.gc_phase_cntr\[7\]
*759 core\.gc_phase_cntr\[8\]
*760 core\.gc_phase_cntr\[9\]
*761 core\.gc_prescaler\[0\]
*762 core\.gc_prescaler\[1\]
*763 core\.gc_prescaler\[2\]
*764 core\.gc_prescaler\[3\]
*765 core\.nco\.acc_out\[0\]
*766 core\.nco\.acc_out\[10\]
*767 core\.nco\.acc_out\[11\]
*768 core\.nco\.acc_out\[12\]
*769 core\.nco\.acc_out\[13\]
*770 core\.nco\.acc_out\[14\]
*771 core\.nco\.acc_out\[1\]
*772 core\.nco\.acc_out\[2\]
*773 core\.nco\.acc_out\[3\]
*774 core\.nco\.acc_out\[4\]
*775 core\.nco\.acc_out\[5\]
*776 core\.nco\.acc_out\[6\]
*777 core\.nco\.acc_out\[7\]
*778 core\.nco\.acc_out\[8\]
*779 core\.nco\.acc_out\[9\]
*780 core\.nco\.cos
*781 core\.nco\.sin
*782 core\.nco_cos_reg
*783 core\.nco_sin_reg
*784 core\.noise\[0\]\[0\]
*785 core\.noise\[0\]\[1\]
*786 core\.noise\[0\]\[2\]
*787 core\.noise\[0\]\[3\]
*788 core\.noise\[0\]\[4\]
*789 core\.noise\[1\]\[0\]
*790 core\.noise\[1\]\[1\]
*791 core\.noise\[1\]\[2\]
*792 core\.noise\[1\]\[3\]
*793 core\.noise\[1\]\[4\]
*794 core\.noise\[2\]\[0\]
*795 core\.noise\[2\]\[1\]
*796 core\.noise\[2\]\[2\]
*797 core\.noise\[2\]\[3\]
*798 core\.noise\[2\]\[4\]
*799 core\.noise\[3\]\[0\]
*800 core\.noise\[3\]\[1\]
*801 core\.noise\[3\]\[2\]
*802 core\.noise\[3\]\[3\]
*803 core\.noise\[3\]\[4\]
*804 core\.noise_off_in
*805 core\.noise_start_out
*806 core\.prng_gen\[0\]\.prng\.lfsr_next\[0\]
*807 core\.prng_gen\[0\]\.prng\.lfsr_next\[10\]
*808 core\.prng_gen\[0\]\.prng\.lfsr_next\[11\]
*809 core\.prng_gen\[0\]\.prng\.lfsr_next\[12\]
*810 core\.prng_gen\[0\]\.prng\.lfsr_next\[13\]
*811 core\.prng_gen\[0\]\.prng\.lfsr_next\[14\]
*812 core\.prng_gen\[0\]\.prng\.lfsr_next\[15\]
*813 core\.prng_gen\[0\]\.prng\.lfsr_next\[16\]
*814 core\.prng_gen\[0\]\.prng\.lfsr_next\[17\]
*815 core\.prng_gen\[0\]\.prng\.lfsr_next\[18\]
*816 core\.prng_gen\[0\]\.prng\.lfsr_next\[19\]
*817 core\.prng_gen\[0\]\.prng\.lfsr_next\[1\]
*818 core\.prng_gen\[0\]\.prng\.lfsr_next\[20\]
*819 core\.prng_gen\[0\]\.prng\.lfsr_next\[21\]
*820 core\.prng_gen\[0\]\.prng\.lfsr_next\[22\]
*821 core\.prng_gen\[0\]\.prng\.lfsr_next\[23\]
*822 core\.prng_gen\[0\]\.prng\.lfsr_next\[24\]
*823 core\.prng_gen\[0\]\.prng\.lfsr_next\[25\]
*824 core\.prng_gen\[0\]\.prng\.lfsr_next\[26\]
*825 core\.prng_gen\[0\]\.prng\.lfsr_next\[27\]
*826 core\.prng_gen\[0\]\.prng\.lfsr_next\[28\]
*827 core\.prng_gen\[0\]\.prng\.lfsr_next\[29\]
*828 core\.prng_gen\[0\]\.prng\.lfsr_next\[2\]
*829 core\.prng_gen\[0\]\.prng\.lfsr_next\[30\]
*830 core\.prng_gen\[0\]\.prng\.lfsr_next\[3\]
*831 core\.prng_gen\[0\]\.prng\.lfsr_next\[4\]
*832 core\.prng_gen\[0\]\.prng\.lfsr_reg\[26\]
*833 core\.prng_gen\[0\]\.prng\.lfsr_reg\[27\]
*834 core\.prng_gen\[0\]\.prng\.lfsr_reg\[28\]
*835 core\.prng_gen\[0\]\.prng\.lfsr_reg\[29\]
*836 core\.prng_gen\[0\]\.prng\.lfsr_reg\[30\]
*837 core\.prng_gen\[0\]\.prng\.rst_in_n
*838 core\.prng_gen\[1\]\.prng\.lfsr_next\[0\]
*839 core\.prng_gen\[1\]\.prng\.lfsr_next\[10\]
*840 core\.prng_gen\[1\]\.prng\.lfsr_next\[11\]
*841 core\.prng_gen\[1\]\.prng\.lfsr_next\[12\]
*842 core\.prng_gen\[1\]\.prng\.lfsr_next\[13\]
*843 core\.prng_gen\[1\]\.prng\.lfsr_next\[14\]
*844 core\.prng_gen\[1\]\.prng\.lfsr_next\[15\]
*845 core\.prng_gen\[1\]\.prng\.lfsr_next\[16\]
*846 core\.prng_gen\[1\]\.prng\.lfsr_next\[17\]
*847 core\.prng_gen\[1\]\.prng\.lfsr_next\[18\]
*848 core\.prng_gen\[1\]\.prng\.lfsr_next\[19\]
*849 core\.prng_gen\[1\]\.prng\.lfsr_next\[1\]
*850 core\.prng_gen\[1\]\.prng\.lfsr_next\[20\]
*851 core\.prng_gen\[1\]\.prng\.lfsr_next\[21\]
*852 core\.prng_gen\[1\]\.prng\.lfsr_next\[22\]
*853 core\.prng_gen\[1\]\.prng\.lfsr_next\[23\]
*854 core\.prng_gen\[1\]\.prng\.lfsr_next\[24\]
*855 core\.prng_gen\[1\]\.prng\.lfsr_next\[25\]
*856 core\.prng_gen\[1\]\.prng\.lfsr_next\[26\]
*857 core\.prng_gen\[1\]\.prng\.lfsr_next\[27\]
*858 core\.prng_gen\[1\]\.prng\.lfsr_next\[28\]
*859 core\.prng_gen\[1\]\.prng\.lfsr_next\[29\]
*860 core\.prng_gen\[1\]\.prng\.lfsr_next\[2\]
*861 core\.prng_gen\[1\]\.prng\.lfsr_next\[30\]
*862 core\.prng_gen\[1\]\.prng\.lfsr_next\[3\]
*863 core\.prng_gen\[1\]\.prng\.lfsr_next\[4\]
*864 core\.prng_gen\[1\]\.prng\.lfsr_reg\[26\]
*865 core\.prng_gen\[1\]\.prng\.lfsr_reg\[27\]
*866 core\.prng_gen\[1\]\.prng\.lfsr_reg\[28\]
*867 core\.prng_gen\[1\]\.prng\.lfsr_reg\[29\]
*868 core\.prng_gen\[1\]\.prng\.lfsr_reg\[30\]
*869 core\.prng_gen\[2\]\.prng\.lfsr_next\[0\]
*870 core\.prng_gen\[2\]\.prng\.lfsr_next\[10\]
*871 core\.prng_gen\[2\]\.prng\.lfsr_next\[11\]
*872 core\.prng_gen\[2\]\.prng\.lfsr_next\[12\]
*873 core\.prng_gen\[2\]\.prng\.lfsr_next\[13\]
*874 core\.prng_gen\[2\]\.prng\.lfsr_next\[14\]
*875 core\.prng_gen\[2\]\.prng\.lfsr_next\[15\]
*876 core\.prng_gen\[2\]\.prng\.lfsr_next\[16\]
*877 core\.prng_gen\[2\]\.prng\.lfsr_next\[17\]
*878 core\.prng_gen\[2\]\.prng\.lfsr_next\[18\]
*879 core\.prng_gen\[2\]\.prng\.lfsr_next\[19\]
*880 core\.prng_gen\[2\]\.prng\.lfsr_next\[1\]
*881 core\.prng_gen\[2\]\.prng\.lfsr_next\[20\]
*882 core\.prng_gen\[2\]\.prng\.lfsr_next\[21\]
*883 core\.prng_gen\[2\]\.prng\.lfsr_next\[22\]
*884 core\.prng_gen\[2\]\.prng\.lfsr_next\[23\]
*885 core\.prng_gen\[2\]\.prng\.lfsr_next\[24\]
*886 core\.prng_gen\[2\]\.prng\.lfsr_next\[25\]
*887 core\.prng_gen\[2\]\.prng\.lfsr_next\[26\]
*888 core\.prng_gen\[2\]\.prng\.lfsr_next\[27\]
*889 core\.prng_gen\[2\]\.prng\.lfsr_next\[28\]
*890 core\.prng_gen\[2\]\.prng\.lfsr_next\[29\]
*891 core\.prng_gen\[2\]\.prng\.lfsr_next\[2\]
*892 core\.prng_gen\[2\]\.prng\.lfsr_next\[30\]
*893 core\.prng_gen\[2\]\.prng\.lfsr_next\[3\]
*894 core\.prng_gen\[2\]\.prng\.lfsr_next\[4\]
*895 core\.prng_gen\[2\]\.prng\.lfsr_reg\[26\]
*896 core\.prng_gen\[2\]\.prng\.lfsr_reg\[27\]
*897 core\.prng_gen\[2\]\.prng\.lfsr_reg\[28\]
*898 core\.prng_gen\[2\]\.prng\.lfsr_reg\[29\]
*899 core\.prng_gen\[2\]\.prng\.lfsr_reg\[30\]
*900 core\.prng_gen\[3\]\.prng\.lfsr_next\[0\]
*901 core\.prng_gen\[3\]\.prng\.lfsr_next\[10\]
*902 core\.prng_gen\[3\]\.prng\.lfsr_next\[11\]
*903 core\.prng_gen\[3\]\.prng\.lfsr_next\[12\]
*904 core\.prng_gen\[3\]\.prng\.lfsr_next\[13\]
*905 core\.prng_gen\[3\]\.prng\.lfsr_next\[14\]
*906 core\.prng_gen\[3\]\.prng\.lfsr_next\[15\]
*907 core\.prng_gen\[3\]\.prng\.lfsr_next\[16\]
*908 core\.prng_gen\[3\]\.prng\.lfsr_next\[17\]
*909 core\.prng_gen\[3\]\.prng\.lfsr_next\[18\]
*910 core\.prng_gen\[3\]\.prng\.lfsr_next\[19\]
*911 core\.prng_gen\[3\]\.prng\.lfsr_next\[1\]
*912 core\.prng_gen\[3\]\.prng\.lfsr_next\[20\]
*913 core\.prng_gen\[3\]\.prng\.lfsr_next\[21\]
*914 core\.prng_gen\[3\]\.prng\.lfsr_next\[22\]
*915 core\.prng_gen\[3\]\.prng\.lfsr_next\[23\]
*916 core\.prng_gen\[3\]\.prng\.lfsr_next\[24\]
*917 core\.prng_gen\[3\]\.prng\.lfsr_next\[25\]
*918 core\.prng_gen\[3\]\.prng\.lfsr_next\[26\]
*919 core\.prng_gen\[3\]\.prng\.lfsr_next\[27\]
*920 core\.prng_gen\[3\]\.prng\.lfsr_next\[28\]
*921 core\.prng_gen\[3\]\.prng\.lfsr_next\[29\]
*922 core\.prng_gen\[3\]\.prng\.lfsr_next\[2\]
*923 core\.prng_gen\[3\]\.prng\.lfsr_next\[30\]
*924 core\.prng_gen\[3\]\.prng\.lfsr_next\[3\]
*925 core\.prng_gen\[3\]\.prng\.lfsr_next\[4\]
*926 core\.prng_gen\[3\]\.prng\.lfsr_reg\[26\]
*927 core\.prng_gen\[3\]\.prng\.lfsr_reg\[27\]
*928 core\.prng_gen\[3\]\.prng\.lfsr_reg\[28\]
*929 core\.prng_gen\[3\]\.prng\.lfsr_reg\[29\]
*930 core\.prng_gen\[3\]\.prng\.lfsr_reg\[30\]
*931 core\.signal_off_in
*932 core\.sin_out
*933 core\.snr_in\[0\]
*934 core\.snr_in\[1\]
*935 core\.snr_in\[2\]
*936 core\.snr_in\[3\]
*937 core\.snr_in\[4\]
*938 core\.snr_in\[5\]
*939 core\.snr_in\[6\]
*940 core\.snr_in\[7\]
*941 core\.start_out
*942 net1
*943 net10
*944 net100
*945 net101
*946 net102
*947 net103
*948 net104
*949 net105
*950 net106
*951 net107
*952 net108
*953 net109
*954 net11
*955 net110
*956 net111
*957 net112
*958 net113
*959 net114
*960 net115
*961 net116
*962 net117
*963 net118
*964 net119
*965 net12
*966 net120
*967 net121
*968 net122
*969 net123
*970 net124
*971 net125
*972 net126
*973 net127
*974 net128
*975 net129
*976 net13
*977 net130
*978 net131
*979 net132
*980 net133
*981 net134
*982 net135
*983 net136
*984 net137
*985 net138
*986 net139
*987 net14
*988 net140
*989 net141
*990 net142
*991 net143
*992 net144
*993 net145
*994 net146
*995 net147
*996 net148
*997 net149
*998 net15
*999 net150
*1000 net151
*1001 net152
*1002 net153
*1003 net154
*1004 net155
*1005 net156
*1006 net157
*1007 net158
*1008 net159
*1009 net16
*1010 net160
*1011 net161
*1012 net162
*1013 net163
*1014 net164
*1015 net165
*1016 net166
*1017 net167
*1018 net168
*1019 net169
*1020 net17
*1021 net170
*1022 net171
*1023 net172
*1024 net173
*1025 net174
*1026 net175
*1027 net176
*1028 net177
*1029 net178
*1030 net179
*1031 net18
*1032 net180
*1033 net181
*1034 net182
*1035 net183
*1036 net184
*1037 net185
*1038 net186
*1039 net187
*1040 net188
*1041 net189
*1042 net19
*1043 net190
*1044 net191
*1045 net192
*1046 net193
*1047 net194
*1048 net195
*1049 net196
*1050 net197
*1051 net198
*1052 net199
*1053 net2
*1054 net20
*1055 net200
*1056 net201
*1057 net202
*1058 net203
*1059 net204
*1060 net205
*1061 net206
*1062 net207
*1063 net208
*1064 net209
*1065 net21
*1066 net210
*1067 net211
*1068 net212
*1069 net213
*1070 net214
*1071 net215
*1072 net216
*1073 net217
*1074 net218
*1075 net219
*1076 net22
*1077 net220
*1078 net221
*1079 net222
*1080 net223
*1081 net224
*1082 net225
*1083 net23
*1084 net24
*1085 net25
*1086 net26
*1087 net27
*1088 net28
*1089 net29
*1090 net3
*1091 net30
*1092 net31
*1093 net32
*1094 net33
*1095 net34
*1096 net35
*1097 net36
*1098 net37
*1099 net38
*1100 net4
*1101 net5
*1102 net58
*1103 net59
*1104 net6
*1105 net60
*1106 net61
*1107 net62
*1108 net63
*1109 net64
*1110 net65
*1111 net66
*1112 net67
*1113 net68
*1114 net69
*1115 net7
*1116 net70
*1117 net71
*1118 net72
*1119 net73
*1120 net74
*1121 net75
*1122 net76
*1123 net77
*1124 net78
*1125 net79
*1126 net8
*1127 net80
*1128 net81
*1129 net82
*1130 net83
*1131 net84
*1132 net85
*1133 net86
*1134 net87
*1135 net88
*1136 net89
*1137 net9
*1138 net90
*1139 net91
*1140 net92
*1141 net93
*1142 net94
*1143 net95
*1144 net96
*1145 net97
*1146 net98
*1147 net99
*1148 reg_bank\.addr\[0\]
*1149 reg_bank\.addr\[1\]
*1150 reg_bank\.addr\[2\]
*1151 reg_bank\.current_state\[0\]
*1152 reg_bank\.current_state\[1\]
*1153 reg_bank\.current_state\[2\]
*1154 reg_bank\.next_state\[0\]
*1155 reg_bank\.next_state\[1\]
*1156 reg_bank\.next_state\[2\]
*1157 reg_bank\.rx_data\[0\]
*1158 reg_bank\.rx_data\[1\]
*1159 reg_bank\.rx_data\[2\]
*1160 reg_bank\.rx_data\[3\]
*1161 reg_bank\.rx_data\[4\]
*1162 reg_bank\.rx_data\[5\]
*1163 reg_bank\.rx_data\[6\]
*1164 reg_bank\.rx_data\[7\]
*1165 reg_bank\.u_rx\.cntr\[0\]
*1166 reg_bank\.u_rx\.cntr\[1\]
*1167 reg_bank\.u_rx\.cntr\[2\]
*1168 reg_bank\.u_rx\.cntr\[3\]
*1169 reg_bank\.u_rx\.cntr\[4\]
*1170 reg_bank\.u_rx\.cntr\[5\]
*1171 reg_bank\.u_rx\.cntr\[6\]
*1172 reg_bank\.u_rx\.cntr\[7\]
*1173 reg_bank\.u_rx\.cntr_tc
*1174 reg_bank\.u_rx\.current_state\[0\]
*1175 reg_bank\.u_rx\.current_state\[1\]
*1176 reg_bank\.u_rx\.current_state\[2\]
*1177 reg_bank\.u_rx\.next_state\[0\]
*1178 reg_bank\.u_rx\.next_state\[1\]
*1179 reg_bank\.u_rx\.next_state\[2\]
*1180 reg_bank\.u_rx\.rx_bit_cntr\[0\]
*1181 reg_bank\.u_rx\.rx_bit_cntr\[1\]
*1182 reg_bank\.u_rx\.rx_bit_cntr\[2\]
*1183 reg_bank\.u_rx\.rx_data_sync
*1184 reg_bank\.u_rx\.rx_meta_reg\[0\]
*1185 reg_bank\.u_rx\.rx_shift_done
*1186 ANTENNA_1
*1187 FILLER_0_0_161
*1188 FILLER_0_0_167
*1189 FILLER_0_0_169
*1190 FILLER_0_0_193
*1191 FILLER_0_0_213
*1192 FILLER_0_0_273
*1193 FILLER_0_0_279
*1194 FILLER_0_0_29
*1195 FILLER_0_0_3
*1196 FILLER_0_0_329
*1197 FILLER_0_0_52
*1198 FILLER_0_10_103
*1199 FILLER_0_10_130
*1200 FILLER_0_10_139
*1201 FILLER_0_10_149
*1202 FILLER_0_10_161
*1203 FILLER_0_10_173
*1204 FILLER_0_10_179
*1205 FILLER_0_10_189
*1206 FILLER_0_10_210
*1207 FILLER_0_10_24
*1208 FILLER_0_10_269
*1209 FILLER_0_10_29
*1210 FILLER_0_10_3
*1211 FILLER_0_10_307
*1212 FILLER_0_10_334
*1213 FILLER_0_10_53
*1214 FILLER_0_10_74
*1215 FILLER_0_10_83
*1216 FILLER_0_10_85
*1217 FILLER_0_11_139
*1218 FILLER_0_11_151
*1219 FILLER_0_11_162
*1220 FILLER_0_11_175
*1221 FILLER_0_11_187
*1222 FILLER_0_11_195
*1223 FILLER_0_11_206
*1224 FILLER_0_11_223
*1225 FILLER_0_11_253
*1226 FILLER_0_11_274
*1227 FILLER_0_11_3
*1228 FILLER_0_11_301
*1229 FILLER_0_11_334
*1230 FILLER_0_11_57
*1231 FILLER_0_12_135
*1232 FILLER_0_12_141
*1233 FILLER_0_12_150
*1234 FILLER_0_12_159
*1235 FILLER_0_12_182
*1236 FILLER_0_12_194
*1237 FILLER_0_12_197
*1238 FILLER_0_12_205
*1239 FILLER_0_12_217
*1240 FILLER_0_12_223
*1241 FILLER_0_12_3
*1242 FILLER_0_12_312
*1243 FILLER_0_12_333
*1244 FILLER_0_12_83
*1245 FILLER_0_13_102
*1246 FILLER_0_13_110
*1247 FILLER_0_13_113
*1248 FILLER_0_13_125
*1249 FILLER_0_13_139
*1250 FILLER_0_13_146
*1251 FILLER_0_13_157
*1252 FILLER_0_13_179
*1253 FILLER_0_13_225
*1254 FILLER_0_13_233
*1255 FILLER_0_13_238
*1256 FILLER_0_13_279
*1257 FILLER_0_13_3
*1258 FILLER_0_13_55
*1259 FILLER_0_13_73
*1260 FILLER_0_14_139
*1261 FILLER_0_14_149
*1262 FILLER_0_14_153
*1263 FILLER_0_14_157
*1264 FILLER_0_14_162
*1265 FILLER_0_14_173
*1266 FILLER_0_14_189
*1267 FILLER_0_14_202
*1268 FILLER_0_14_231
*1269 FILLER_0_14_243
*1270 FILLER_0_14_253
*1271 FILLER_0_14_26
*1272 FILLER_0_14_29
*1273 FILLER_0_14_3
*1274 FILLER_0_14_306
*1275 FILLER_0_14_334
*1276 FILLER_0_14_82
*1277 FILLER_0_14_9
*1278 FILLER_0_14_98
*1279 FILLER_0_15_103
*1280 FILLER_0_15_111
*1281 FILLER_0_15_122
*1282 FILLER_0_15_130
*1283 FILLER_0_15_160
*1284 FILLER_0_15_169
*1285 FILLER_0_15_181
*1286 FILLER_0_15_222
*1287 FILLER_0_15_251
*1288 FILLER_0_15_259
*1289 FILLER_0_15_28
*1290 FILLER_0_15_3
*1291 FILLER_0_15_54
*1292 FILLER_0_15_57
*1293 FILLER_0_15_7
*1294 FILLER_0_16_132
*1295 FILLER_0_16_136
*1296 FILLER_0_16_150
*1297 FILLER_0_16_158
*1298 FILLER_0_16_187
*1299 FILLER_0_16_219
*1300 FILLER_0_16_249
*1301 FILLER_0_16_253
*1302 FILLER_0_16_3
*1303 FILLER_0_16_49
*1304 FILLER_0_16_96
*1305 FILLER_0_17_102
*1306 FILLER_0_17_116
*1307 FILLER_0_17_127
*1308 FILLER_0_17_150
*1309 FILLER_0_17_162
*1310 FILLER_0_17_167
*1311 FILLER_0_17_197
*1312 FILLER_0_17_225
*1313 FILLER_0_17_242
*1314 FILLER_0_17_250
*1315 FILLER_0_17_262
*1316 FILLER_0_17_274
*1317 FILLER_0_17_297
*1318 FILLER_0_17_3
*1319 FILLER_0_17_334
*1320 FILLER_0_17_45
*1321 FILLER_0_17_51
*1322 FILLER_0_17_57
*1323 FILLER_0_17_68
*1324 FILLER_0_17_90
*1325 FILLER_0_18_134
*1326 FILLER_0_18_138
*1327 FILLER_0_18_150
*1328 FILLER_0_18_156
*1329 FILLER_0_18_195
*1330 FILLER_0_18_223
*1331 FILLER_0_18_236
*1332 FILLER_0_18_240
*1333 FILLER_0_18_253
*1334 FILLER_0_18_270
*1335 FILLER_0_18_3
*1336 FILLER_0_18_45
*1337 FILLER_0_18_52
*1338 FILLER_0_18_65
*1339 FILLER_0_18_69
*1340 FILLER_0_18_80
*1341 FILLER_0_18_92
*1342 FILLER_0_19_103
*1343 FILLER_0_19_108
*1344 FILLER_0_19_131
*1345 FILLER_0_19_152
*1346 FILLER_0_19_164
*1347 FILLER_0_19_195
*1348 FILLER_0_19_201
*1349 FILLER_0_19_220
*1350 FILLER_0_19_248
*1351 FILLER_0_19_270
*1352 FILLER_0_19_281
*1353 FILLER_0_19_3
*1354 FILLER_0_19_42
*1355 FILLER_0_19_55
*1356 FILLER_0_19_57
*1357 FILLER_0_1_113
*1358 FILLER_0_1_117
*1359 FILLER_0_1_146
*1360 FILLER_0_1_169
*1361 FILLER_0_1_175
*1362 FILLER_0_1_3
*1363 FILLER_0_1_329
*1364 FILLER_0_1_78
*1365 FILLER_0_20_102
*1366 FILLER_0_20_125
*1367 FILLER_0_20_133
*1368 FILLER_0_20_150
*1369 FILLER_0_20_162
*1370 FILLER_0_20_185
*1371 FILLER_0_20_195
*1372 FILLER_0_20_200
*1373 FILLER_0_20_221
*1374 FILLER_0_20_246
*1375 FILLER_0_20_284
*1376 FILLER_0_20_3
*1377 FILLER_0_20_306
*1378 FILLER_0_20_312
*1379 FILLER_0_20_334
*1380 FILLER_0_20_35
*1381 FILLER_0_20_55
*1382 FILLER_0_20_60
*1383 FILLER_0_21_105
*1384 FILLER_0_21_11
*1385 FILLER_0_21_111
*1386 FILLER_0_21_113
*1387 FILLER_0_21_125
*1388 FILLER_0_21_162
*1389 FILLER_0_21_201
*1390 FILLER_0_21_222
*1391 FILLER_0_21_242
*1392 FILLER_0_21_281
*1393 FILLER_0_21_3
*1394 FILLER_0_21_44
*1395 FILLER_0_21_68
*1396 FILLER_0_21_79
*1397 FILLER_0_22_11
*1398 FILLER_0_22_110
*1399 FILLER_0_22_122
*1400 FILLER_0_22_130
*1401 FILLER_0_22_161
*1402 FILLER_0_22_188
*1403 FILLER_0_22_192
*1404 FILLER_0_22_197
*1405 FILLER_0_22_202
*1406 FILLER_0_22_237
*1407 FILLER_0_22_24
*1408 FILLER_0_22_249
*1409 FILLER_0_22_266
*1410 FILLER_0_22_29
*1411 FILLER_0_22_3
*1412 FILLER_0_22_301
*1413 FILLER_0_23_111
*1414 FILLER_0_23_113
*1415 FILLER_0_23_133
*1416 FILLER_0_23_142
*1417 FILLER_0_23_146
*1418 FILLER_0_23_237
*1419 FILLER_0_23_278
*1420 FILLER_0_23_3
*1421 FILLER_0_23_304
*1422 FILLER_0_23_333
*1423 FILLER_0_23_55
*1424 FILLER_0_23_9
*1425 FILLER_0_23_91
*1426 FILLER_0_24_139
*1427 FILLER_0_24_147
*1428 FILLER_0_24_195
*1429 FILLER_0_24_212
*1430 FILLER_0_24_241
*1431 FILLER_0_24_245
*1432 FILLER_0_24_249
*1433 FILLER_0_24_262
*1434 FILLER_0_24_3
*1435 FILLER_0_24_309
*1436 FILLER_0_24_60
*1437 FILLER_0_24_94
*1438 FILLER_0_25_11
*1439 FILLER_0_25_133
*1440 FILLER_0_25_155
*1441 FILLER_0_25_163
*1442 FILLER_0_25_167
*1443 FILLER_0_25_178
*1444 FILLER_0_25_193
*1445 FILLER_0_25_201
*1446 FILLER_0_25_205
*1447 FILLER_0_25_254
*1448 FILLER_0_25_266
*1449 FILLER_0_25_3
*1450 FILLER_0_25_334
*1451 FILLER_0_25_52
*1452 FILLER_0_25_57
*1453 FILLER_0_25_65
*1454 FILLER_0_26_100
*1455 FILLER_0_26_124
*1456 FILLER_0_26_136
*1457 FILLER_0_26_197
*1458 FILLER_0_26_218
*1459 FILLER_0_26_257
*1460 FILLER_0_26_269
*1461 FILLER_0_26_296
*1462 FILLER_0_26_3
*1463 FILLER_0_26_330
*1464 FILLER_0_26_334
*1465 FILLER_0_26_47
*1466 FILLER_0_26_52
*1467 FILLER_0_26_94
*1468 FILLER_0_27_122
*1469 FILLER_0_27_128
*1470 FILLER_0_27_167
*1471 FILLER_0_27_169
*1472 FILLER_0_27_222
*1473 FILLER_0_27_225
*1474 FILLER_0_27_242
*1475 FILLER_0_27_254
*1476 FILLER_0_27_266
*1477 FILLER_0_27_272
*1478 FILLER_0_27_3
*1479 FILLER_0_27_307
*1480 FILLER_0_27_332
*1481 FILLER_0_27_41
*1482 FILLER_0_27_53
*1483 FILLER_0_27_66
*1484 FILLER_0_27_81
*1485 FILLER_0_27_93
*1486 FILLER_0_28_117
*1487 FILLER_0_28_129
*1488 FILLER_0_28_189
*1489 FILLER_0_28_231
*1490 FILLER_0_28_237
*1491 FILLER_0_28_259
*1492 FILLER_0_28_267
*1493 FILLER_0_28_3
*1494 FILLER_0_28_333
*1495 FILLER_0_28_49
*1496 FILLER_0_28_55
*1497 FILLER_0_28_76
*1498 FILLER_0_28_85
*1499 FILLER_0_29_11
*1500 FILLER_0_29_111
*1501 FILLER_0_29_118
*1502 FILLER_0_29_167
*1503 FILLER_0_29_169
*1504 FILLER_0_29_17
*1505 FILLER_0_29_176
*1506 FILLER_0_29_200
*1507 FILLER_0_29_22
*1508 FILLER_0_29_242
*1509 FILLER_0_29_263
*1510 FILLER_0_29_287
*1511 FILLER_0_29_3
*1512 FILLER_0_29_328
*1513 FILLER_0_29_334
*1514 FILLER_0_29_36
*1515 FILLER_0_29_44
*1516 FILLER_0_29_57
*1517 FILLER_0_29_89
*1518 FILLER_0_2_141
*1519 FILLER_0_2_147
*1520 FILLER_0_2_197
*1521 FILLER_0_2_24
*1522 FILLER_0_2_249
*1523 FILLER_0_2_29
*1524 FILLER_0_2_3
*1525 FILLER_0_2_309
*1526 FILLER_0_2_334
*1527 FILLER_0_2_96
*1528 FILLER_0_30_123
*1529 FILLER_0_30_164
*1530 FILLER_0_30_176
*1531 FILLER_0_30_187
*1532 FILLER_0_30_195
*1533 FILLER_0_30_197
*1534 FILLER_0_30_204
*1535 FILLER_0_30_265
*1536 FILLER_0_30_277
*1537 FILLER_0_30_281
*1538 FILLER_0_30_288
*1539 FILLER_0_30_298
*1540 FILLER_0_30_3
*1541 FILLER_0_30_333
*1542 FILLER_0_30_48
*1543 FILLER_0_30_7
*1544 FILLER_0_30_83
*1545 FILLER_0_30_90
*1546 FILLER_0_31_130
*1547 FILLER_0_31_15
*1548 FILLER_0_31_169
*1549 FILLER_0_31_177
*1550 FILLER_0_31_183
*1551 FILLER_0_31_195
*1552 FILLER_0_31_222
*1553 FILLER_0_31_225
*1554 FILLER_0_31_234
*1555 FILLER_0_31_244
*1556 FILLER_0_31_266
*1557 FILLER_0_31_278
*1558 FILLER_0_31_281
*1559 FILLER_0_31_285
*1560 FILLER_0_31_3