*SPEF "ieee 1481-1999"
*DESIGN "tt_um_ccattuto_conway"
*DATE "21:56:15 Monday May 27, 2024"
*VENDOR "The OpenROAD Project"
*PROGRAM "OpenROAD"
*VERSION "da0053d7b0014ab9c87ea148875ff6c2a0f9b658"
*DESIGN_FLOW "NAME_SCOPE LOCAL" "PIN_CAP NONE"
*DIVIDER /
*DELIMITER :
*BUS_DELIMITER []
*T_UNIT 1 NS
*C_UNIT 1 PF
*R_UNIT 1 OHM
*L_UNIT 1 HENRY

*NAME_MAP
*3 clk
*4 ena
*5 rst_n
*6 ui_in[0]
*7 ui_in[1]
*8 ui_in[2]
*9 ui_in[3]
*10 ui_in[4]
*11 ui_in[5]
*12 ui_in[6]
*13 ui_in[7]
*14 uio_in[0]
*15 uio_in[1]
*16 uio_in[2]
*17 uio_in[3]
*18 uio_in[4]
*19 uio_in[5]
*20 uio_in[6]
*21 uio_in[7]
*22 net22
*23 net6
*24 net7
*25 net8
*26 net9
*27 net10
*28 net11
*29 net12
*30 uio_out[0]
*31 uio_out[1]
*32 net13
*33 uio_out[3]
*34 net14
*35 uio_out[5]
*36 uio_out[6]
*37 uio_out[7]
*38 net15
*39 net16
*40 net17
*41 net18
*42 uo_out[4]
*43 net19
*44 net20
*45 net21
*46 B
*47 _0000_
*48 _0001_
*49 _0002_
*50 _0003_
*51 _0004_
*52 _0005_
*53 _0006_
*54 _0007_
*55 _0008_
*56 _0009_
*57 _0010_
*58 _0011_
*59 _0012_
*60 _0013_
*61 _0014_
*62 _0015_
*63 _0016_
*64 _0017_
*65 _0018_
*66 _0019_
*67 _0020_
*68 _0021_
*69 _0022_
*70 _0023_
*71 _0024_
*72 _0025_
*73 _0026_
*74 _0027_
*75 _0028_
*76 _0029_
*77 _0030_
*78 _0031_
*79 _0032_
*80 _0033_
*81 _0034_
*82 _0035_
*83 _0036_
*84 _0037_
*85 _0038_
*86 _0039_
*87 _0040_
*88 _0041_
*89 _0042_
*90 _0043_
*91 _0044_
*92 _0045_
*93 _0046_
*94 _0047_
*95 _0048_
*96 _0049_
*97 _0050_
*98 _0051_
*99 _0052_
*100 _0053_
*101 _0054_
*102 _0055_
*103 _0056_
*104 _0057_
*105 _0058_
*106 _0059_
*107 _0060_
*108 _0061_
*109 _0062_
*110 _0063_
*111 _0064_
*112 _0065_
*113 _0066_
*114 _0067_
*115 _0068_
*116 _0069_
*117 _0070_
*118 _0071_
*119 _0072_
*120 _0073_
*121 _0074_
*122 _0075_
*123 _0076_
*124 _0077_
*125 _0078_
*126 _0079_
*127 _0080_
*128 _0081_
*129 _0082_
*130 _0083_
*131 _0084_
*132 _0085_
*133 _0086_
*134 _0087_
*135 _0088_
*136 _0089_
*137 _0090_
*138 _0091_
*139 _0092_
*140 _0093_
*141 _0094_
*142 _0095_
*143 _0096_
*144 _0097_
*145 _0098_
*146 _0099_
*147 _0100_
*148 _0101_
*149 _0102_
*150 _0103_
*151 _0104_
*152 _0105_
*153 _0106_
*154 _0107_
*155 _0108_
*156 _0109_
*157 _0110_
*158 _0111_
*159 _0112_
*160 _0113_
*161 _0114_
*162 _0115_
*163 _0116_
*164 _0117_
*165 _0118_
*166 _0119_
*167 _0120_
*168 _0121_
*169 _0122_
*170 _0123_
*171 _0124_
*172 _0125_
*173 _0126_
*174 _0127_
*175 _0128_
*176 _0129_
*177 _0130_
*178 _0131_
*179 _0132_
*180 _0133_
*181 _0134_
*182 _0135_
*183 _0136_
*184 _0137_
*185 _0138_
*186 _0139_
*187 _0140_
*188 _0141_
*189 _0142_
*190 _0143_
*191 _0144_
*192 _0145_
*193 _0146_
*194 _0147_
*195 _0148_
*196 _0149_
*197 _0150_
*198 _0151_
*199 _0152_
*200 _0153_
*201 _0154_
*202 _0155_
*203 _0156_
*204 _0157_
*205 _0158_
*206 _0159_
*207 _0160_
*208 _0161_
*209 _0162_
*210 _0163_
*211 _0164_
*212 _0165_
*213 _0166_
*214 _0167_
*215 _0168_
*216 _0169_
*217 _0170_
*218 _0171_
*219 _0172_
*220 _0173_
*221 _0174_
*222 _0175_
*223 _0176_
*224 _0177_
*225 _0178_
*226 _0179_
*227 _0180_
*228 _0181_
*229 _0182_
*230 _0183_
*231 _0184_
*232 _0185_
*233 _0186_
*234 _0187_
*235 _0188_
*236 _0189_
*237 _0190_
*238 _0191_
*239 _0192_
*240 _0193_
*241 _0194_
*242 _0195_
*243 _0196_
*244 _0197_
*245 _0198_
*246 _0199_
*247 _0200_
*248 _0201_
*249 _0202_
*250 _0203_
*251 _0204_
*252 _0205_
*253 _0206_
*254 _0207_
*255 _0208_
*256 _0209_
*257 _0210_
*258 _0211_
*259 _0212_
*260 _0213_
*261 _0214_
*262 _0215_
*263 _0216_
*264 _0217_
*265 _0218_
*266 _0219_
*267 _0220_
*268 _0221_
*269 _0222_
*270 _0223_
*271 _0224_
*272 _0225_
*273 _0226_
*274 _0227_
*275 _0228_
*276 _0229_
*277 _0230_
*278 _0231_
*279 _0232_
*280 _0233_
*281 _0234_
*282 _0235_
*283 _0236_
*284 _0237_
*285 _0238_
*286 _0239_
*287 _0240_
*288 _0241_
*289 _0242_
*290 _0243_
*291 _0244_
*292 _0245_
*293 _0246_
*294 _0247_
*295 _0248_
*296 _0249_
*297 _0250_
*298 _0251_
*299 _0252_
*300 _0253_
*301 _0254_
*302 _0255_
*303 _0256_
*304 _0257_
*305 _0258_
*306 _0259_
*307 _0260_
*308 _0261_
*309 _0262_
*310 _0263_
*311 _0264_
*312 _0265_
*313 _0266_
*314 _0267_
*315 _0268_
*316 _0269_
*317 _0270_
*318 _0271_
*319 _0272_
*320 _0273_
*321 _0274_
*322 _0275_
*323 _0276_
*324 _0277_
*325 _0278_
*326 _0279_
*327 _0280_
*328 _0281_
*329 _0282_
*330 _0283_
*331 _0284_
*332 _0285_
*333 _0286_
*334 _0287_
*335 _0288_
*336 _0289_
*337 _0290_
*338 _0291_
*339 _0292_
*340 _0293_
*341 _0294_
*342 _0295_
*343 _0296_
*344 _0297_
*345 _0298_
*346 _0299_
*347 _0300_
*348 _0301_
*349 _0302_
*350 _0303_
*351 _0304_
*352 _0305_
*353 _0306_
*354 _0307_
*355 _0308_
*356 _0309_
*357 _0310_
*358 _0311_
*359 _0312_
*360 _0313_
*361 _0314_
*362 _0315_
*363 _0316_
*364 _0317_
*365 _0318_
*366 _0319_
*367 _0320_
*368 _0321_
*369 _0322_
*370 _0323_
*371 _0324_
*372 _0325_
*373 _0326_
*374 _0327_
*375 _0328_
*376 _0329_
*377 _0330_
*378 _0331_
*379 _0332_
*380 _0333_
*381 _0334_
*382 _0335_
*383 _0336_
*384 _0337_
*385 _0338_
*386 _0339_
*387 _0340_
*388 _0341_
*389 _0342_
*390 _0343_
*391 _0344_
*392 _0345_
*393 _0346_
*394 _0347_
*395 _0348_
*396 _0349_
*397 _0350_
*398 _0351_
*399 _0352_
*400 _0353_
*401 _0354_
*402 _0355_
*403 _0356_
*404 _0357_
*405 _0358_
*406 _0359_
*407 _0360_
*408 _0361_
*409 _0362_
*410 _0363_
*411 _0364_
*412 _0365_
*413 _0366_
*414 _0367_
*415 _0368_
*416 _0369_
*417 _0370_
*418 _0371_
*419 _0372_
*420 _0373_
*421 _0374_
*422 _0375_
*423 _0376_
*424 _0377_
*425 _0378_
*426 _0379_
*427 _0380_
*428 _0381_
*429 _0382_
*430 _0383_
*431 _0384_
*432 _0385_
*433 _0386_
*434 _0387_
*435 _0388_
*436 _0389_
*437 _0390_
*438 _0391_
*439 _0392_
*440 _0393_
*441 _0394_
*442 _0395_
*443 _0396_
*444 _0397_
*445 _0398_
*446 _0399_
*447 _0400_
*448 _0401_
*449 _0402_
*450 _0403_
*451 _0404_
*452 _0405_
*453 _0406_
*454 _0407_
*455 _0408_
*456 _0409_
*457 _0410_
*458 _0411_
*459 _0412_
*460 _0413_
*461 _0414_
*462 _0415_
*463 _0416_
*464 _0417_
*465 _0418_
*466 _0419_
*467 _0420_
*468 _0421_
*469 _0422_
*470 _0423_
*471 _0424_
*472 _0425_
*473 _0426_
*474 _0427_
*475 _0428_
*476 _0429_
*477 _0430_
*478 _0431_
*479 _0432_
*480 _0433_
*481 _0434_
*482 _0435_
*483 _0436_
*484 _0437_
*485 _0438_
*486 _0439_
*487 _0440_
*488 _0441_
*489 _0442_
*490 _0443_
*491 _0444_
*492 _0445_
*493 _0446_
*494 _0447_
*495 _0448_
*496 _0449_
*497 _0450_
*498 _0451_
*499 _0452_
*500 _0453_
*501 _0454_
*502 _0455_
*503 _0456_
*504 _0457_
*505 _0458_
*506 _0459_
*507 _0460_
*508 _0461_
*509 _0462_
*510 _0463_
*511 _0464_
*512 _0465_
*513 _0466_
*514 _0467_
*515 _0468_
*516 _0469_
*517 _0470_
*518 _0471_
*519 _0472_
*520 _0473_
*521 _0474_
*522 _0475_
*523 _0476_
*524 _0477_
*525 _0478_
*526 _0479_
*527 _0480_
*528 _0481_
*529 _0482_
*530 _0483_
*531 _0484_
*532 _0485_
*533 _0486_
*534 _0487_
*535 _0488_
*536 _0489_
*537 _0490_
*538 _0491_
*539 _0492_
*540 _0493_
*541 _0494_
*542 _0495_
*543 _0496_
*544 _0497_
*545 _0498_
*546 _0499_
*547 _0500_
*548 _0501_
*549 _0502_
*550 _0503_
*551 _0504_
*552 _0505_
*553 _0506_
*554 _0507_
*555 _0508_
*556 _0509_
*557 _0510_
*558 _0511_
*559 _0512_
*560 _0513_
*561 _0514_
*562 _0515_
*563 _0516_
*564 _0517_
*565 _0518_
*566 _0519_
*567 _0520_
*568 _0521_
*569 _0522_
*570 _0523_
*571 _0524_
*572 _0525_
*573 _0526_
*574 _0527_
*575 _0528_
*576 _0529_
*577 _0530_
*578 _0531_
*579 _0532_
*580 _0533_
*581 _0534_
*582 _0535_
*583 _0536_
*584 _0537_
*585 _0538_
*586 _0539_
*587 _0540_
*588 _0541_
*589 _0542_
*590 _0543_
*591 _0544_
*592 _0545_
*593 _0546_
*594 _0547_
*595 _0548_
*596 _0549_
*597 _0550_
*598 _0551_
*599 _0552_
*600 _0553_
*601 _0554_
*602 _0555_
*603 _0556_
*604 _0557_
*605 _0558_
*606 _0559_
*607 _0560_
*608 _0561_
*609 _0562_
*610 _0563_
*611 _0564_
*612 _0565_
*613 _0566_
*614 _0567_
*615 _0568_
*616 _0569_
*617 _0570_
*618 _0571_
*619 _0572_
*620 _0573_
*621 _0574_
*622 _0575_
*623 _0576_
*624 _0577_
*625 _0578_
*626 _0579_
*627 _0580_
*628 _0581_
*629 _0582_
*630 _0583_
*631 _0584_
*632 _0585_
*633 _0586_
*634 _0587_
*635 _0588_
*636 _0589_
*637 _0590_
*638 _0591_
*639 _0592_
*640 _0593_
*641 _0594_
*642 _0595_
*643 _0596_
*644 _0597_
*645 _0598_
*646 _0599_
*647 _0600_
*648 _0601_
*649 _0602_
*650 _0603_
*651 _0604_
*652 _0605_
*653 _0606_
*654 _0607_
*655 _0608_
*656 _0609_
*657 _0610_
*658 _0611_
*659 _0612_
*660 _0613_
*661 _0614_
*662 _0615_
*663 _0616_
*664 _0617_
*665 _0618_
*666 _0619_
*667 _0620_
*668 _0621_
*669 _0622_
*670 _0623_
*671 _0624_
*672 _0625_
*673 _0626_
*674 _0627_
*675 _0628_
*676 _0629_
*677 _0630_
*678 _0631_
*679 _0632_
*680 _0633_
*681 _0634_
*682 _0635_
*683 _0636_
*684 _0637_
*685 _0638_
*686 _0639_
*687 _0640_
*688 _0641_
*689 _0642_
*690 _0643_
*691 _0644_
*692 _0645_
*693 _0646_
*694 _0647_
*695 _0648_
*696 _0649_
*697 _0650_
*698 _0651_
*699 _0652_
*700 _0653_
*701 _0654_
*702 _0655_
*703 _0656_
*704 _0657_
*705 _0658_
*706 _0659_
*707 _0660_
*708 _0661_
*709 _0662_
*710 _0663_
*711 _0664_
*712 _0665_
*713 _0666_
*714 _0667_
*715 _0668_
*716 _0669_
*717 _0670_
*718 _0671_
*719 _0672_
*720 _0673_
*721 _0674_
*722 _0675_
*723 _0676_
*724 _0677_
*725 _0678_
*726 _0679_
*727 _0680_
*728 _0681_
*729 _0682_
*730 _0683_
*731 _0684_
*732 _0685_
*733 _0686_
*734 _0687_
*735 _0688_
*736 _0689_
*737 _0690_
*738 _0691_
*739 _0692_
*740 _0693_
*741 _0694_
*742 _0695_
*743 _0696_
*744 _0697_
*745 _0698_
*746 _0699_
*747 _0700_
*748 _0701_
*749 _0702_
*750 _0703_
*751 _0704_
*752 _0705_
*753 _0706_
*754 _0707_
*755 _0708_
*756 _0709_
*757 _0710_
*758 _0711_
*759 _0712_
*760 _0713_
*761 _0714_
*762 _0715_
*763 _0716_
*764 _0717_
*765 _0718_
*766 _0719_
*767 _0720_
*768 _0721_
*769 _0722_
*770 _0723_
*771 _0724_
*772 _0725_
*773 _0726_
*774 _0727_
*775 _0728_
*776 _0729_
*777 _0730_
*778 _0731_
*779 _0732_
*780 _0733_
*781 _0734_
*782 _0735_
*783 _0736_
*784 _0737_
*785 _0738_
*786 _0739_
*787 _0740_
*788 _0741_
*789 _0742_
*790 _0743_
*791 _0744_
*792 _0745_
*793 _0746_
*794 _0747_
*795 _0748_
*796 _0749_
*797 _0750_
*798 _0751_
*799 _0752_
*800 _0753_
*801 _0754_
*802 _0755_
*803 _0756_
*804 _0757_
*805 _0758_
*806 _0759_
*807 _0760_
*808 _0761_
*809 _0762_
*810 _0763_
*811 _0764_
*812 _0765_
*813 _0766_
*814 _0767_
*815 _0768_
*816 _0769_
*817 _0770_
*818 _0771_
*819 _0772_
*820 _0773_
*821 _0774_
*822 _0775_
*823 _0776_
*824 _0777_
*825 _0778_
*826 _0779_
*827 _0780_
*828 _0781_
*829 _0782_
*830 _0783_
*831 _0784_
*832 _0785_
*833 _0786_
*834 _0787_
*835 _0788_
*836 _0789_
*837 _0790_
*838 _0791_
*839 _0792_
*840 _0793_
*841 _0794_
*842 _0795_
*843 _0796_
*844 _0797_
*845 _0798_
*846 _0799_
*847 _0800_
*848 _0801_
*849 _0802_
*850 _0803_
*851 _0804_
*852 _0805_
*853 _0806_
*854 _0807_
*855 _0808_
*856 _0809_
*857 _0810_
*858 _0811_
*859 _0812_
*860 _0813_
*861 _0814_
*862 _0815_
*863 _0816_
*864 _0817_
*865 _0818_
*866 _0819_
*867 _0820_
*868 _0821_
*869 _0822_
*870 _0823_
*871 _0824_
*872 _0825_
*873 _0826_
*874 _0827_
*875 _0828_
*876 _0829_
*877 _0830_
*878 _0831_
*879 _0832_
*880 _0833_
*881 _0834_
*882 _0835_
*883 _0836_
*884 _0837_
*885 _0838_
*886 _0839_
*887 _0840_
*888 _0841_
*889 _0842_
*890 _0843_
*891 _0844_
*892 _0845_
*893 _0846_
*894 _0847_
*895 _0848_
*896 _0849_
*897 _0850_
*898 _0851_
*899 _0852_
*900 _0853_
*901 _0854_
*902 _0855_
*903 _0856_
*904 _0857_
*905 _0858_
*906 _0859_
*907 _0860_
*908 _0861_
*909 _0862_
*910 _0863_
*911 _0864_
*912 _0865_
*913 _0866_
*914 _0867_
*915 _0868_
*916 _0869_
*917 _0870_
*918 _0871_
*919 _0872_
*920 _0873_
*921 _0874_
*922 _0875_
*923 _0876_
*924 _0877_
*925 _0878_
*926 _0879_
*927 _0880_
*928 _0881_
*929 _0882_
*930 _0883_
*931 _0884_
*932 _0885_
*933 _0886_
*934 _0887_
*935 _0888_
*936 _0889_
*937 _0890_
*938 _0891_
*939 _0892_
*940 _0893_
*941 _0894_
*942 _0895_
*943 _0896_
*944 _0897_
*945 _0898_
*946 _0899_
*947 _0900_
*948 _0901_
*949 _0902_
*950 _0903_
*951 _0904_
*952 _0905_
*953 _0906_
*954 _0907_
*955 _0908_
*956 _0909_
*957 _0910_
*958 _0911_
*959 _0912_
*960 _0913_
*961 _0914_
*962 _0915_
*963 _0916_
*964 _0917_
*965 _0918_
*966 _0919_
*967 _0920_
*968 _0921_
*969 _0922_
*970 _0923_
*971 _0924_
*972 _0925_
*973 _0926_
*974 _0927_
*975 _0928_
*976 _0929_
*977 _0930_
*978 _0931_
*979 _0932_
*980 _0933_
*981 _0934_
*982 _0935_
*983 _0936_
*984 _0937_
*985 _0938_
*986 _0939_
*987 _0940_
*988 _0941_
*989 _0942_
*990 _0943_
*991 _0944_
*992 _0945_
*993 _0946_
*994 _0947_
*995 _0948_
*996 _0949_
*997 _0950_
*998 _0951_
*999 _0952_
*1000 _0953_
*1001 _0954_
*1002 _0955_
*1003 _0956_
*1004 _0957_
*1005 _0958_
*1006 _0959_
*1007 _0960_
*1008 _0961_
*1009 _0962_
*1010 _0963_
*1011 _0964_
*1012 _0965_
*1013 _0966_
*1014 _0967_
*1015 _0968_
*1016 _0969_
*1017 _0970_
*1018 _0971_
*1019 _0972_
*1020 _0973_
*1021 _0974_
*1022 _0975_
*1023 _0976_
*1024 _0977_
*1025 _0978_
*1026 _0979_
*1027 _0980_
*1028 _0981_
*1029 _0982_
*1030 _0983_
*1031 _0984_
*1032 _0985_
*1033 _0986_
*1034 _0987_
*1035 _0988_
*1036 _0989_
*1037 _0990_
*1038 _0991_
*1039 _0992_
*1040 _0993_
*1041 _0994_
*1042 _0995_
*1043 _0996_
*1044 _0997_
*1045 _0998_
*1046 _0999_
*1047 _1000_
*1048 _1001_
*1049 _1002_
*1050 _1003_
*1051 _1004_
*1052 _1005_
*1053 _1006_
*1054 _1007_
*1055 _1008_
*1056 _1009_
*1057 _1010_
*1058 _1011_
*1059 _1012_
*1060 _1013_
*1061 _1014_
*1062 _1015_
*1063 _1016_
*1064 _1017_
*1065 _1018_
*1066 _1019_
*1067 _1020_
*1068 _1021_
*1069 _1022_
*1070 _1023_
*1071 _1024_
*1072 _1025_
*1073 _1026_
*1074 _1027_
*1075 _1028_
*1076 _1029_
*1077 _1030_
*1078 _1031_
*1079 _1032_
*1080 _1033_
*1081 _1034_
*1082 _1035_
*1083 _1036_
*1084 _1037_
*1085 _1038_
*1086 _1039_
*1087 _1040_
*1088 _1041_
*1089 _1042_
*1090 _1043_
*1091 _1044_
*1092 _1045_
*1093 _1046_
*1094 _1047_
*1095 _1048_
*1096 _1049_
*1097 _1050_
*1098 _1051_
*1099 _1052_
*1100 _1053_
*1101 _1054_
*1102 _1055_
*1103 _1056_
*1104 _1057_
*1105 _1058_
*1106 _1059_
*1107 _1060_
*1108 _1061_
*1109 _1062_
*1110 _1063_
*1111 _1064_
*1112 _1065_
*1113 _1066_
*1114 _1067_
*1115 _1068_
*1116 _1069_
*1117 _1070_
*1118 _1071_
*1119 _1072_
*1120 _1073_
*1121 _1074_
*1122 _1075_
*1123 _1076_
*1124 _1077_
*1125 _1078_
*1126 _1079_
*1127 _1080_
*1128 _1081_
*1129 _1082_
*1130 _1083_
*1131 _1084_
*1132 _1085_
*1133 _1086_
*1134 _1087_
*1135 _1088_
*1136 _1089_
*1137 _1090_
*1138 _1091_
*1139 _1092_
*1140 _1093_
*1141 _1094_
*1142 _1095_
*1143 _1096_
*1144 _1097_
*1145 _1098_
*1146 _1099_
*1147 _1100_
*1148 _1101_
*1149 _1102_
*1150 _1103_
*1151 _1104_
*1152 _1105_
*1153 _1106_
*1154 _1107_
*1155 _1108_
*1156 _1109_
*1157 _1110_
*1158 _1111_
*1159 _1112_
*1160 _1113_
*1161 _1114_
*1162 _1115_
*1163 _1116_
*1164 _1117_
*1165 _1118_
*1166 _1119_
*1167 _1120_
*1168 _1121_
*1169 _1122_
*1170 _1123_
*1171 _1124_
*1172 _1125_
*1173 _1126_
*1174 _1127_
*1175 _1128_
*1176 _1129_
*1177 _1130_
*1178 _1131_
*1179 _1132_
*1180 _1133_
*1181 _1134_
*1182 _1135_
*1183 _1136_
*1184 _1137_
*1185 _1138_
*1186 _1139_
*1187 _1140_
*1188 _1141_
*1189 _1142_
*1190 _1143_
*1191 _1144_
*1192 _1145_
*1193 _1146_
*1194 _1147_
*1195 _1148_
*1196 _1149_
*1197 _1150_
*1198 _1151_
*1199 _1152_
*1200 _1153_
*1201 _1154_
*1202 _1155_
*1203 _1156_
*1204 _1157_
*1205 _1158_
*1206 _1159_
*1207 _1160_
*1208 _1161_
*1209 _1162_
*1210 _1163_
*1211 _1164_
*1212 _1165_
*1213 _1166_
*1214 _1167_
*1215 _1168_
*1216 _1169_
*1217 _1170_
*1218 _1171_
*1219 _1172_
*1220 _1173_
*1221 _1174_
*1222 _1175_
*1223 _1176_
*1224 _1177_
*1225 _1178_
*1226 _1179_
*1227 _1180_
*1228 _1181_
*1229 _1182_
*1230 _1183_
*1231 _1184_
*1232 _1185_
*1233 _1186_
*1234 _1187_
*1235 _1188_
*1236 _1189_
*1237 _1190_
*1238 _1191_
*1239 _1192_
*1240 _1193_
*1241 _1194_
*1242 _1195_
*1243 _1196_
*1244 _1197_
*1245 _1198_
*1246 _1199_
*1247 _1200_
*1248 _1201_
*1249 _1202_
*1250 _1203_
*1251 _1204_
*1252 _1205_
*1253 _1206_
*1254 _1207_
*1255 _1208_
*1256 _1209_
*1257 _1210_
*1258 _1211_
*1259 _1212_
*1260 _1213_
*1261 _1214_
*1262 _1215_
*1263 _1216_
*1264 _1217_
*1265 _1218_
*1266 _1219_
*1267 _1220_
*1268 _1221_
*1269 _1222_
*1270 _1223_
*1271 _1224_
*1272 _1225_
*1273 _1226_
*1274 _1227_
*1275 _1228_
*1276 _1229_
*1277 _1230_
*1278 _1231_
*1279 _1232_
*1280 _1233_
*1281 _1234_
*1282 _1235_
*1283 _1236_
*1284 _1237_
*1285 _1238_
*1286 _1239_
*1287 _1240_
*1288 _1241_
*1289 _1242_
*1290 _1243_
*1291 _1244_
*1292 _1245_
*1293 _1246_
*1294 _1247_
*1295 _1248_
*1296 _1249_
*1297 _1250_
*1298 _1251_
*1299 _1252_
*1300 _1253_
*1301 _1254_
*1302 _1255_
*1303 _1256_
*1304 _1257_
*1305 _1258_
*1306 _1259_
*1307 _1260_
*1308 _1261_
*1309 _1262_
*1310 _1263_
*1311 _1264_
*1312 _1265_
*1313 _1266_
*1314 _1267_
*1315 _1268_
*1316 _1269_
*1317 _1270_
*1318 _1271_
*1319 _1272_
*1320 _1273_
*1321 _1274_
*1322 _1275_
*1323 _1276_
*1324 _1277_
*1325 _1278_
*1326 _1279_
*1327 _1280_
*1328 _1281_
*1329 _1282_
*1330 _1283_
*1331 _1284_
*1332 _1285_
*1333 _1286_
*1334 _1287_
*1335 _1288_
*1336 _1289_
*1337 _1290_
*1338 _1291_
*1339 _1292_
*1340 _1293_
*1341 _1294_
*1342 _1295_
*1343 _1296_
*1344 _1297_
*1345 _1298_
*1346 _1299_
*1347 _1300_
*1348 _1301_
*1349 _1302_
*1350 _1303_
*1351 _1304_
*1352 _1305_
*1353 _1306_
*1354 _1307_
*1355 _1308_
*1356 _1309_
*1357 _1310_
*1358 _1311_
*1359 _1312_
*1360 _1313_
*1361 _1314_
*1362 _1315_
*1363 _1316_
*1364 _1317_
*1365 _1318_
*1366 _1319_
*1367 _1320_
*1368 _1321_
*1369 _1322_
*1370 _1323_
*1371 _1324_
*1372 _1325_
*1373 _1326_
*1374 _1327_
*1375 _1328_
*1376 _1329_
*1377 _1330_
*1378 _1331_
*1379 _1332_
*1380 _1333_
*1381 _1334_
*1382 _1335_
*1383 _1336_
*1384 _1337_
*1385 _1338_
*1386 _1339_
*1387 _1340_
*1388 _1341_
*1389 _1342_
*1390 _1343_
*1391 _1344_
*1392 _1345_
*1393 _1346_
*1394 _1347_
*1395 _1348_
*1396 _1349_
*1397 _1350_
*1398 _1351_
*1399 _1352_
*1400 _1353_
*1401 _1354_
*1402 _1355_
*1403 _1356_
*1404 _1357_
*1405 _1358_
*1406 _1359_
*1407 _1360_
*1408 _1361_
*1409 _1362_
*1410 _1363_
*1411 _1364_
*1412 _1365_
*1413 _1366_
*1414 _1367_
*1415 _1368_
*1416 _1369_
*1417 _1370_
*1418 _1371_
*1419 _1372_
*1420 _1373_
*1421 _1374_
*1422 _1375_
*1423 _1376_
*1424 _1377_
*1425 _1378_
*1426 _1379_
*1427 _1380_
*1428 _1381_
*1429 _1382_
*1430 _1383_
*1431 _1384_
*1432 _1385_
*1433 _1386_
*1434 _1387_
*1435 _1388_
*1436 _1389_
*1437 _1390_
*1438 _1391_
*1439 _1392_
*1440 _1393_
*1441 _1394_
*1442 _1395_
*1443 _1396_
*1444 _1397_
*1445 _1398_
*1446 _1399_
*1447 _1400_
*1448 _1401_
*1449 _1402_
*1450 _1403_
*1451 _1404_
*1452 _1405_
*1453 _1406_
*1454 _1407_
*1455 _1408_
*1456 _1409_
*1457 _1410_
*1458 _1411_
*1459 _1412_
*1460 _1413_
*1461 _1414_
*1462 _1415_
*1463 _1416_
*1464 _1417_
*1465 _1418_
*1466 _1419_
*1467 _1420_
*1468 _1421_
*1469 _1422_
*1470 _1423_
*1471 _1424_
*1472 _1425_
*1473 _1426_
*1474 _1427_
*1475 _1428_
*1476 _1429_
*1477 _1430_
*1478 _1431_
*1479 _1432_
*1480 _1433_
*1481 _1434_
*1482 _1435_
*1483 _1436_
*1484 _1437_
*1485 _1438_
*1486 _1439_
*1487 _1440_
*1488 _1441_
*1489 _1442_
*1490 _1443_
*1491 _1444_
*1492 _1445_
*1493 _1446_
*1494 _1447_
*1495 _1448_
*1496 _1449_
*1497 _1450_
*1498 _1451_
*1499 _1452_
*1500 _1453_
*1501 _1454_
*1502 _1455_
*1503 _1456_
*1504 _1457_
*1505 _1458_
*1506 _1459_
*1507 _1460_
*1508 _1461_
*1509 _1462_
*1510 _1463_
*1511 _1464_
*1512 _1465_
*1513 _1466_
*1514 _1467_
*1515 _1468_
*1516 _1469_
*1517 _1470_
*1518 _1471_
*1519 _1472_
*1520 _1473_
*1521 _1474_
*1522 _1475_
*1523 _1476_
*1524 _1477_
*1525 _1478_
*1526 _1479_
*1527 _1480_
*1528 _1481_
*1529 _1482_
*1530 _1483_
*1531 _1484_
*1532 _1485_
*1533 _1486_
*1534 _1487_
*1535 _1488_
*1536 _1489_
*1537 _1490_
*1538 _1491_
*1539 _1492_
*1540 _1493_
*1541 _1494_
*1542 _1495_
*1543 _1496_
*1544 _1497_
*1545 _1498_
*1546 _1499_
*1547 _1500_
*1548 _1501_
*1549 _1502_
*1550 _1503_
*1551 _1504_
*1552 _1505_
*1553 _1506_
*1554 _1507_
*1555 _1508_
*1556 _1509_
*1557 _1510_
*1558 _1511_
*1559 _1512_
*1560 _1513_
*1561 _1514_
*1562 _1515_
*1563 _1516_
*1564 _1517_
*1565 _1518_
*1566 _1519_
*1567 _1520_
*1568 _1521_
*1569 _1522_
*1570 _1523_
*1571 _1524_
*1572 _1525_
*1573 _1526_
*1574 _1527_
*1575 _1528_
*1576 _1529_
*1577 _1530_
*1578 _1531_
*1579 _1532_
*1580 _1533_
*1581 _1534_
*1582 _1535_
*1583 _1536_
*1584 _1537_
*1585 _1538_
*1586 _1539_
*1587 _1540_
*1588 _1541_
*1589 _1542_
*1590 _1543_
*1591 _1544_
*1592 _1545_
*1593 _1546_
*1594 _1547_
*1595 _1548_
*1596 _1549_
*1597 _1550_
*1598 _1551_
*1599 _1552_
*1600 _1553_
*1601 _1554_
*1602 _1555_
*1603 _1556_
*1604 _1557_
*1605 _1558_
*1606 _1559_
*1607 action\[0\]
*1608 action\[1\]
*1609 action\[2\]
*1610 action\[3\]
*1611 action\[4\]
*1612 action\[5\]
*1613 action\[6\]
*1614 action\[7\]
*1615 board_state\[0\]
*1616 board_state\[10\]
*1617 board_state\[11\]
*1618 board_state\[12\]
*1619 board_state\[13\]
*1620 board_state\[14\]
*1621 board_state\[15\]
*1622 board_state\[16\]
*1623 board_state\[17\]
*1624 board_state\[18\]
*1625 board_state\[19\]
*1626 board_state\[1\]
*1627 board_state\[20\]
*1628 board_state\[21\]
*1629 board_state\[22\]
*1630 board_state\[23\]
*1631 board_state\[24\]
*1632 board_state\[25\]
*1633 board_state\[26\]
*1634 board_state\[27\]
*1635 board_state\[28\]
*1636 board_state\[29\]
*1637 board_state\[2\]
*1638 board_state\[30\]
*1639 board_state\[31\]
*1640 board_state\[32\]
*1641 board_state\[33\]
*1642 board_state\[34\]
*1643 board_state\[35\]
*1644 board_state\[36\]
*1645 board_state\[37\]
*1646 board_state\[38\]
*1647 board_state\[39\]
*1648 board_state\[3\]
*1649 board_state\[40\]
*1650 board_state\[41\]
*1651 board_state\[42\]
*1652 board_state\[43\]
*1653 board_state\[44\]
*1654 board_state\[45\]
*1655 board_state\[46\]
*1656 board_state\[47\]
*1657 board_state\[48\]
*1658 board_state\[49\]
*1659 board_state\[4\]
*1660 board_state\[50\]
*1661 board_state\[51\]
*1662 board_state\[52\]
*1663 board_state\[53\]
*1664 board_state\[54\]
*1665 board_state\[55\]
*1666 board_state\[56\]
*1667 board_state\[57\]
*1668 board_state\[58\]
*1669 board_state\[59\]
*1670 board_state\[5\]
*1671 board_state\[60\]
*1672 board_state\[61\]
*1673 board_state\[62\]
*1674 board_state\[63\]
*1675 board_state\[6\]
*1676 board_state\[7\]
*1677 board_state\[8\]
*1678 board_state\[9\]
*1679 board_state_next\[0\]
*1680 board_state_next\[10\]
*1681 board_state_next\[11\]
*1682 board_state_next\[12\]
*1683 board_state_next\[13\]
*1684 board_state_next\[14\]
*1685 board_state_next\[15\]
*1686 board_state_next\[16\]
*1687 board_state_next\[17\]
*1688 board_state_next\[18\]
*1689 board_state_next\[19\]
*1690 board_state_next\[1\]
*1691 board_state_next\[20\]
*1692 board_state_next\[21\]
*1693 board_state_next\[22\]
*1694 board_state_next\[23\]
*1695 board_state_next\[24\]
*1696 board_state_next\[25\]
*1697 board_state_next\[26\]
*1698 board_state_next\[27\]
*1699 board_state_next\[28\]
*1700 board_state_next\[29\]
*1701 board_state_next\[2\]
*1702 board_state_next\[30\]
*1703 board_state_next\[31\]
*1704 board_state_next\[32\]
*1705 board_state_next\[33\]
*1706 board_state_next\[34\]
*1707 board_state_next\[35\]
*1708 board_state_next\[36\]
*1709 board_state_next\[37\]
*1710 board_state_next\[38\]
*1711 board_state_next\[39\]
*1712 board_state_next\[3\]
*1713 board_state_next\[40\]
*1714 board_state_next\[41\]
*1715 board_state_next\[42\]
*1716 board_state_next\[43\]
*1717 board_state_next\[44\]
*1718 board_state_next\[45\]
*1719 board_state_next\[46\]
*1720 board_state_next\[47\]
*1721 board_state_next\[48\]
*1722 board_state_next\[49\]
*1723 board_state_next\[4\]
*1724 board_state_next\[50\]
*1725 board_state_next\[51\]
*1726 board_state_next\[52\]
*1727 board_state_next\[53\]
*1728 board_state_next\[54\]
*1729 board_state_next\[55\]
*1730 board_state_next\[56\]
*1731 board_state_next\[57\]
*1732 board_state_next\[58\]
*1733 board_state_next\[59\]
*1734 board_state_next\[5\]
*1735 board_state_next\[60\]
*1736 board_state_next\[61\]
*1737 board_state_next\[62\]
*1738 board_state_next\[63\]
*1739 board_state_next\[6\]
*1740 board_state_next\[7\]
*1741 board_state_next\[8\]
*1742 board_state_next\[9\]
*1743 cell_x\[0\]
*1744 cell_x\[1\]
*1745 cell_x\[2\]
*1746 cell_y\[0\]
*1747 cell_y\[1\]
*1748 cell_y\[2\]
*1749 clknet_0_clk
*1750 clknet_2_0__leaf_clk
*1751 clknet_2_1__leaf_clk
*1752 clknet_2_2__leaf_clk
*1753 clknet_2_3__leaf_clk
*1754 clknet_leaf_0_clk
*1755 clknet_leaf_10_clk
*1756 clknet_leaf_11_clk
*1757 clknet_leaf_12_clk
*1758 clknet_leaf_13_clk
*1759 clknet_leaf_14_clk
*1760 clknet_leaf_15_clk
*1761 clknet_leaf_16_clk
*1762 clknet_leaf_17_clk
*1763 clknet_leaf_18_clk
*1764 clknet_leaf_19_clk
*1765 clknet_leaf_1_clk
*1766 clknet_leaf_20_clk
*1767 clknet_leaf_21_clk
*1768 clknet_leaf_22_clk
*1769 clknet_leaf_23_clk
*1770 clknet_leaf_24_clk
*1771 clknet_leaf_25_clk
*1772 clknet_leaf_26_clk
*1773 clknet_leaf_27_clk
*1774 clknet_leaf_28_clk
*1775 clknet_leaf_29_clk
*1776 clknet_leaf_2_clk
*1777 clknet_leaf_3_clk
*1778 clknet_leaf_4_clk
*1779 clknet_leaf_5_clk
*1780 clknet_leaf_6_clk
*1781 clknet_leaf_7_clk
*1782 clknet_leaf_8_clk
*1783 clknet_leaf_9_clk
*1784 colindex\[0\]
*1785 colindex\[1\]
*1786 colindex\[2\]
*1787 colindex\[3\]
*1788 hvsync_inst\.hpos\[0\]
*1789 hvsync_inst\.hpos\[1\]
*1790 hvsync_inst\.hpos\[2\]
*1791 hvsync_inst\.hpos\[3\]
*1792 hvsync_inst\.hpos\[4\]
*1793 hvsync_inst\.hpos\[5\]
*1794 hvsync_inst\.hpos\[6\]
*1795 hvsync_inst\.hpos\[7\]
*1796 hvsync_inst\.hpos\[8\]
*1797 hvsync_inst\.hpos\[9\]
*1798 hvsync_inst\.hsync
*1799 hvsync_inst\.vpos\[0\]
*1800 hvsync_inst\.vpos\[1\]
*1801 hvsync_inst\.vpos\[2\]
*1802 hvsync_inst\.vpos\[3\]
*1803 hvsync_inst\.vpos\[4\]
*1804 hvsync_inst\.vpos\[5\]
*1805 hvsync_inst\.vpos\[6\]
*1806 hvsync_inst\.vpos\[7\]
*1807 hvsync_inst\.vpos\[8\]
*1808 hvsync_inst\.vpos\[9\]
*1809 hvsync_inst\.vsync
*1810 lfsr\.lfsr_reg\[0\]
*1811 lfsr\.lfsr_reg\[10\]
*1812 lfsr\.lfsr_reg\[11\]
*1813 lfsr\.lfsr_reg\[12\]
*1814 lfsr\.lfsr_reg\[13\]
*1815 lfsr\.lfsr_reg\[14\]
*1816 lfsr\.lfsr_reg\[15\]
*1817 lfsr\.lfsr_reg\[1\]
*1818 lfsr\.lfsr_reg\[2\]
*1819 lfsr\.lfsr_reg\[3\]
*1820 lfsr\.lfsr_reg\[4\]
*1821 lfsr\.lfsr_reg\[5\]
*1822 lfsr\.lfsr_reg\[6\]
*1823 lfsr\.lfsr_reg\[7\]
*1824 lfsr\.lfsr_reg\[8\]
*1825 lfsr\.lfsr_reg\[9\]
*1826 neigh_index\[0\]
*1827 neigh_index\[1\]
*1828 neigh_index\[2\]
*1829 neigh_index\[3\]
*1830 net1
*1831 net100
*1832 net101
*1833 net102
*1834 net103
*1835 net104
*1836 net105
*1837 net106
*1838 net107
*1839 net108
*1840 net109
*1841 net110
*1842 net111
*1843 net112
*1844 net113
*1845 net114
*1846 net115
*1847 net116
*1848 net117
*1849 net118
*1850 net119
*1851 net120
*1852 net121
*1853 net122
*1854 net123
*1855 net124
*1856 net125
*1857 net126
*1858 net127
*1859 net128
*1860 net129
*1861 net130
*1862 net131
*1863 net132
*1864 net133
*1865 net134
*1866 net135
*1867 net136
*1868 net137
*1869 net138
*1870 net139
*1871 net140
*1872 net141
*1873 net142
*1874 net143
*1875 net144
*1876 net145
*1877 net146
*1878 net147
*1879 net148
*1880 net149
*1881 net150
*1882 net151
*1883 net152
*1884 net153
*1885 net154
*1886 net155
*1887 net156
*1888 net157
*1889 net158
*1890 net159
*1891 net160
*1892 net161
*1893 net162
*1894 net163
*1895 net164
*1896 net165
*1897 net166
*1898 net167
*1899 net168
*1900 net169
*1901 net170
*1902 net171
*1903 net172
*1904 net173
*1905 net174
*1906 net175
*1907 net176
*1908 net177
*1909 net178
*1910 net179
*1911 net180
*1912 net181
*1913 net182
*1914 net183
*1915 net184
*1916 net185
*1917 net186
*1918 net187
*1919 net188
*1920 net189
*1921 net190
*1922 net191
*1923 net192
*1924 net193
*1925 net194
*1926 net195
*1927 net196
*1928 net197
*1929 net198
*1930 net199
*1931 net2
*1932 net200
*1933 net201
*1934 net202
*1935 net203
*1936 net204
*1937 net205
*1938 net206
*1939 net207
*1940 net208
*1941 net209
*1942 net210
*1943 net211
*1944 net212
*1945 net213
*1946 net214
*1947 net215
*1948 net216
*1949 net217
*1950 net218
*1951 net219
*1952 net220
*1953 net221
*1954 net222
*1955 net223
*1956 net224
*1957 net225
*1958 net226
*1959 net227
*1960 net228
*1961 net229
*1962 net23
*1963 net230
*1964 net231
*1965 net232
*1966 net233
*1967 net234
*1968 net235
*1969 net236
*1970 net237
*1971 net238
*1972 net239
*1973 net24
*1974 net240
*1975 net241
*1976 net242
*1977 net243
*1978 net244
*1979 net245
*1980 net246
*1981 net247
*1982 net248
*1983 net25
*1984 net26
*1985 net27
*1986 net28
*1987 net29
*1988 net3
*1989 net30
*1990 net31
*1991 net32
*1992 net33
*1993 net34
*1994 net35
*1995 net36
*1996 net37
*1997 net38
*1998 net39
*1999 net4
*2000 net40
*2001 net41
*2002 net42
*2003 net43
*2004 net44
*2005 net45
*2006 net46
*2007 net47
*2008 net48
*2009 net49
*2010 net5
*2011 net50
*2012 net51
*2013 net52
*2014 net53
*2015 net54
*2016 net55
*2017 net56
*2018 net57
*2019 net58
*2020 net59
*2021 net60
*2022 net61
*2023 net62
*2024 net63
*2025 net64
*2026 net65
*2027 net66
*2028 net67
*2029 net68
*2030 net69
*2031 net70
*2032 net71
*2033 net72
*2034 net73
*2035 net74
*2036 net75
*2037 net76
*2038 net77
*2039 net78
*2040 net79
*2041 net80
*2042 net81
*2043 net82
*2044 net83
*2045 net84
*2046 net85
*2047 net86
*2048 net87
*2049 net88
*2050 net89
*2051 net90
*2052 net91
*2053 net92
*2054 net93
*2055 net94
*2056 net95
*2057 net96
*2058 net97
*2059 net98
*2060 net99
*2061 num_neighbors\[0\]
*2062 num_neighbors\[1\]
*2063 num_neighbors\[2\]
*2064 num_neighbors\[3\]
*2065 running
*2066 timer\[0\]
*2067 timer\[10\]
*2068 timer\[11\]
*2069 timer\[12\]
*2070 timer\[13\]
*2071 timer\[14\]
*2072 timer\[15\]
*2073 timer\[16\]
*2074 timer\[17\]
*2075 timer\[18\]
*2076 timer\[19\]
*2077 timer\[1\]
*2078 timer\[20\]
*2079 timer\[21\]
*2080 timer\[22\]
*2081 timer\[23\]
*2082 timer\[24\]
*2083 timer\[25\]
*2084 timer\[26\]
*2085 timer\[27\]
*2086 timer\[28\]
*2087 timer\[29\]
*2088 timer\[2\]
*2089 timer\[30\]
*2090 timer\[31\]
*2091 timer\[3\]
*2092 timer\[4\]
*2093 timer\[5\]
*2094 timer\[6\]
*2095 timer\[7\]
*2096 timer\[8\]
*2097 timer\[9\]
*2098 txindex\[0\]
*2099 txindex\[1\]
*2100 txindex\[2\]
*2101 txindex\[3\]
*2102 txindex\[4\]
*2103 txindex\[5\]
*2104 txstate\[0\]
*2105 txstate\[2\]
*2106 txstate\[3\]
*2107 txstate\[4\]
*2108 txstate\[5\]
*2109 txstate\[6\]
*2110 txstate\[7\]
*2111 txstate\[8\]
*2112 uart_rx_inst\.bitIndex\[0\]
*2113 uart_rx_inst\.bitIndex\[1\]
*2114 uart_rx_inst\.bitIndex\[2\]
*2115 uart_rx_inst\.data\[0\]
*2116 uart_rx_inst\.data\[1\]
*2117 uart_rx_inst\.data\[2\]
*2118 uart_rx_inst\.data\[3\]
*2119 uart_rx_inst\.data\[4\]
*2120 uart_rx_inst\.data\[5\]