*SPEF "ieee 1481-1999"
*DESIGN "tt_um_DanielZhu123"
*DATE "15:20:16 Saturday May 11, 2024"
*VENDOR "The OpenROAD Project"
*PROGRAM "OpenROAD"
*VERSION "da0053d7b0014ab9c87ea148875ff6c2a0f9b658"
*DESIGN_FLOW "NAME_SCOPE LOCAL" "PIN_CAP NONE"
*DIVIDER /
*DELIMITER :
*BUS_DELIMITER []
*T_UNIT 1 NS
*C_UNIT 1 PF
*R_UNIT 1 OHM
*L_UNIT 1 HENRY

*NAME_MAP
*3 clk
*4 ena
*5 rst_n
*6 ui_in[0]
*7 ui_in[1]
*8 ui_in[2]
*9 ui_in[3]
*10 ui_in[4]
*11 ui_in[5]
*12 ui_in[6]
*13 ui_in[7]
*14 uio_in[0]
*15 uio_in[1]
*16 uio_in[2]
*17 uio_in[3]
*18 uio_in[4]
*19 uio_in[5]
*20 uio_in[6]
*21 uio_in[7]
*22 net19
*23 net12
*24 net13
*25 net14
*26 net15
*27 net16
*28 net17
*29 net18
*30 uio_out[0]
*31 uio_out[1]
*32 uio_out[2]
*33 uio_out[3]
*34 uio_out[4]
*35 uio_out[5]
*36 uio_out[6]
*37 uio_out[7]
*38 uo_out[0]
*39 uo_out[1]
*40 uo_out[2]
*41 uo_out[3]
*42 uo_out[4]
*43 uo_out[5]
*44 uo_out[6]
*45 uo_out[7]
*46 _000_
*47 _001_
*48 _002_
*49 _003_
*50 _004_
*51 _005_
*52 _006_
*53 _007_
*54 _008_
*55 _009_
*56 _010_
*57 _011_
*58 _012_
*59 _013_
*60 _014_
*61 _015_
*62 _016_
*63 _017_
*64 _018_
*65 _019_
*66 _020_
*67 _021_
*68 _022_
*69 _023_
*70 _024_
*71 _025_
*72 _026_
*73 _027_
*74 _028_
*75 _029_
*76 _030_
*77 _031_
*78 _032_
*79 _033_
*80 _034_
*81 _035_
*82 _036_
*83 _037_
*84 _038_
*85 _039_
*86 _040_
*87 _041_
*88 _042_
*89 _043_
*90 _044_
*91 _045_
*92 _046_
*93 _047_
*94 _048_
*95 _049_
*96 _050_
*97 _051_
*98 _052_
*99 _053_
*100 _054_
*101 _055_
*102 _056_
*103 _057_
*104 _058_
*105 _059_
*106 _060_
*107 _061_
*108 _062_
*109 _063_
*110 _064_
*111 _065_
*112 _066_
*113 _067_
*114 _068_
*115 _069_
*116 _070_
*117 _071_
*118 _072_
*119 _073_
*120 _074_
*121 _075_
*122 _076_
*123 _077_
*124 _078_
*125 _079_
*126 _080_
*127 _081_
*128 _082_
*129 _083_
*130 _084_
*131 _085_
*132 _086_
*133 _087_
*134 _088_
*135 _089_
*136 _090_
*137 _091_
*138 _092_
*139 _093_
*140 _094_
*141 _095_
*142 _096_
*143 _097_
*144 _098_
*145 _099_
*146 _100_
*147 _101_
*148 _102_
*149 _103_
*150 _104_
*151 _105_
*152 _106_
*153 _107_
*154 _108_
*155 _109_
*156 _110_
*157 _111_
*158 _112_
*159 _113_
*160 _114_
*161 _115_
*162 _116_
*163 _117_
*164 _118_
*165 _119_
*166 _120_
*167 _121_
*168 _122_
*169 _123_
*170 _124_
*171 _125_
*172 _126_
*173 _127_
*174 _128_
*175 _129_
*176 _130_
*177 _131_
*178 _132_
*179 _133_
*180 _134_
*181 _135_
*182 _136_
*183 _137_
*184 _138_
*185 _139_
*186 _140_
*187 _141_
*188 _142_
*189 _143_
*190 _144_
*191 _145_
*192 _146_
*193 _147_
*194 _148_
*195 _149_
*196 _150_
*197 _151_
*198 _152_
*199 _153_
*200 _154_
*201 _155_
*202 _156_
*203 _157_
*204 _158_
*205 _159_
*206 _160_
*207 _161_
*208 _162_
*209 _163_
*210 _164_
*211 _165_
*212 _166_
*213 _167_
*214 _168_
*215 _169_
*216 _170_
*217 _171_
*218 _172_
*219 _173_
*220 _174_
*221 _175_
*222 _176_
*223 _177_
*224 _178_
*225 _179_
*226 _180_
*227 _181_
*228 _182_
*229 _183_
*230 _184_
*231 _185_
*232 _186_
*233 _187_
*234 _188_
*235 _189_
*236 _190_
*237 _191_
*238 _192_
*239 _193_
*240 _194_
*241 _195_
*242 _196_
*243 _197_
*244 _198_
*245 _199_
*246 _200_
*247 _201_
*248 _202_
*249 _203_
*250 _204_
*251 _205_
*252 _206_
*253 _207_
*254 _208_
*255 _209_
*256 _210_
*257 _211_
*258 _212_
*259 _213_
*260 _214_
*261 _215_
*262 _216_
*263 _217_
*264 _218_
*265 _219_
*266 _220_
*267 _221_
*268 _222_
*269 _223_
*270 _224_
*271 _225_
*272 _226_
*273 _227_
*274 _228_
*275 _229_
*276 _230_
*277 _231_
*278 _232_
*279 _233_
*280 _234_
*281 _235_
*282 _236_
*283 _237_
*284 _238_
*285 _239_
*286 _240_
*287 _241_
*288 _242_
*289 _243_
*290 _244_
*291 _245_
*292 _246_
*293 _247_
*294 _248_
*295 _249_
*296 _250_
*297 _251_
*298 _252_
*299 _253_
*300 _254_
*301 _255_
*302 _256_
*303 _257_
*304 _258_
*305 _259_
*306 _260_
*307 _261_
*308 _262_
*309 _263_
*310 _264_
*311 _265_
*312 _266_
*313 _267_
*314 _268_
*315 _269_
*316 _270_
*317 _271_
*318 _272_
*319 _273_
*320 _274_
*321 _275_
*322 _276_
*323 _277_
*324 _278_
*325 _279_
*326 _280_
*327 _281_
*328 _282_
*329 _283_
*330 _284_
*331 _285_
*332 _286_
*333 _287_
*334 _288_
*335 _289_
*336 _290_
*337 _291_
*338 _292_
*339 _293_
*340 _294_
*341 _295_
*342 _296_
*343 _297_
*344 _298_
*345 _299_
*346 _300_
*347 _301_
*348 _302_
*349 _304_
*350 _305_
*351 _306_
*352 _307_
*353 _308_
*354 _309_
*355 _310_
*356 _311_
*357 _312_
*358 _313_
*359 _314_
*360 _315_
*361 _316_
*362 _317_
*363 _318_
*364 _319_
*365 _320_
*366 _321_
*367 _322_
*368 _323_
*369 _324_
*370 _325_
*371 _326_
*372 _327_
*373 _328_
*374 _329_
*375 _330_
*376 _331_
*377 _332_
*378 _333_
*379 _334_
*380 _335_
*381 _336_
*382 _337_
*383 _338_
*384 _339_
*385 _340_
*386 _341_
*387 _342_
*388 _343_
*389 _344_
*390 _345_
*391 _346_
*392 _347_
*393 _348_
*394 _349_
*395 _350_
*396 _351_
*397 _352_
*398 _353_
*399 _354_
*400 _355_
*401 _356_
*402 _357_
*403 _358_
*404 _359_
*405 _360_
*406 _361_
*407 _362_
*408 _363_
*409 _364_
*410 _365_
*411 _366_
*412 _367_
*413 _368_
*414 _369_
*415 _370_
*416 _371_
*417 _372_
*418 _373_
*419 _374_
*420 _375_
*421 _376_
*422 _377_
*423 _378_
*424 _379_
*425 _380_
*426 _381_
*427 _382_
*428 _383_
*429 _384_
*430 _385_
*431 _386_
*432 _387_
*433 _388_
*434 _389_
*435 _390_
*436 _391_
*437 _392_
*438 _393_
*439 _394_
*440 _395_
*441 _396_
*442 _397_
*443 bit_10NTreal\.data\[0\]
*444 bit_10NTreal\.data\[1\]
*445 bit_10NTreal\.data\[2\]
*446 bit_10NTreal\.data\[3\]
*447 bit_10NTreal\.data\[4\]
*448 bit_10NTreal\.data\[5\]
*449 bit_10NTreal\.data\[6\]
*450 bit_10NTreal\.data\[7\]
*451 bit_10NTreal\.data\[8\]
*452 bit_10NTreal\.data\[9\]
*453 bit_10NTreal\.error
*454 bit_10NTreal\.power13
*455 bit_10NTreal\.power24
*456 clknet_0__018_
*457 clknet_0__262_
*458 clknet_0__356_
*459 clknet_0__381_
*460 clknet_0_clk
*461 clknet_1_0__leaf__018_
*462 clknet_1_0__leaf__262_
*463 clknet_1_0__leaf__356_
*464 clknet_1_0__leaf__381_
*465 clknet_1_0__leaf_clk
*466 clknet_1_1__leaf__018_
*467 clknet_1_1__leaf__262_
*468 clknet_1_1__leaf__356_
*469 clknet_1_1__leaf__381_
*470 clknet_1_1__leaf_clk
*471 keyboardreal\.numA\[0\]
*472 keyboardreal\.numA\[1\]
*473 keyboardreal\.numA\[2\]
*474 keyboardreal\.numA\[3\]
*475 keyboardreal\.numA\[4\]
*476 keyboardreal\.numA\[5\]
*477 keyboardreal\.numA\[6\]
*478 keyboardreal\.numA\[7\]
*479 keyboardreal\.numAmid\[0\]
*480 keyboardreal\.numAmid\[1\]
*481 keyboardreal\.numAmid\[2\]
*482 keyboardreal\.numAmid\[3\]
*483 keyboardreal\.numAmid\[4\]
*484 keyboardreal\.numAmid\[5\]
*485 keyboardreal\.numAmid\[6\]
*486 keyboardreal\.numAmid\[7\]
*487 keyboardreal\.numAmid\[8\]
*488 keyboardreal\.numB\[0\]
*489 keyboardreal\.numB\[1\]
*490 keyboardreal\.numB\[2\]
*491 keyboardreal\.numB\[3\]
*492 keyboardreal\.numB\[4\]
*493 keyboardreal\.numB\[5\]
*494 keyboardreal\.numB\[6\]
*495 keyboardreal\.numB\[7\]
*496 keyboardreal\.numBmid\[0\]
*497 keyboardreal\.numBmid\[1\]
*498 keyboardreal\.numBmid\[2\]
*499 keyboardreal\.numBmid\[3\]
*500 keyboardreal\.numBmid\[4\]
*501 keyboardreal\.numBmid\[5\]
*502 keyboardreal\.numBmid\[6\]
*503 keyboardreal\.numBmid\[7\]
*504 keyboardreal\.numBmid\[8\]
*505 net1
*506 net10
*507 net11
*508 net2
*509 net20
*510 net21
*511 net22
*512 net23
*513 net24
*514 net3
*515 net4
*516 net5
*517 net6
*518 net7
*519 net8
*520 net9
*521 FILLER_0_0_109
*522 FILLER_0_0_113
*523 FILLER_0_0_125
*524 FILLER_0_0_137
*525 FILLER_0_0_141
*526 FILLER_0_0_15
*527 FILLER_0_0_153
*528 FILLER_0_0_165
*529 FILLER_0_0_169
*530 FILLER_0_0_181
*531 FILLER_0_0_193
*532 FILLER_0_0_197
*533 FILLER_0_0_209
*534 FILLER_0_0_221
*535 FILLER_0_0_225
*536 FILLER_0_0_237
*537 FILLER_0_0_249
*538 FILLER_0_0_253
*539 FILLER_0_0_265
*540 FILLER_0_0_27
*541 FILLER_0_0_277
*542 FILLER_0_0_281
*543 FILLER_0_0_29
*544 FILLER_0_0_293
*545 FILLER_0_0_3
*546 FILLER_0_0_305
*547 FILLER_0_0_309
*548 FILLER_0_0_321
*549 FILLER_0_0_333
*550 FILLER_0_0_41
*551 FILLER_0_0_53
*552 FILLER_0_0_57
*553 FILLER_0_0_69
*554 FILLER_0_0_81
*555 FILLER_0_0_85
*556 FILLER_0_0_97
*557 FILLER_0_10_109
*558 FILLER_0_10_121
*559 FILLER_0_10_133
*560 FILLER_0_10_139
*561 FILLER_0_10_141
*562 FILLER_0_10_15
*563 FILLER_0_10_153
*564 FILLER_0_10_165
*565 FILLER_0_10_177
*566 FILLER_0_10_189
*567 FILLER_0_10_195
*568 FILLER_0_10_197
*569 FILLER_0_10_209
*570 FILLER_0_10_221
*571 FILLER_0_10_233
*572 FILLER_0_10_245
*573 FILLER_0_10_251
*574 FILLER_0_10_253
*575 FILLER_0_10_265
*576 FILLER_0_10_27
*577 FILLER_0_10_277
*578 FILLER_0_10_289
*579 FILLER_0_10_29
*580 FILLER_0_10_3
*581 FILLER_0_10_301
*582 FILLER_0_10_307
*583 FILLER_0_10_309
*584 FILLER_0_10_321
*585 FILLER_0_10_333
*586 FILLER_0_10_41
*587 FILLER_0_10_53
*588 FILLER_0_10_65
*589 FILLER_0_10_77
*590 FILLER_0_10_83
*591 FILLER_0_10_85
*592 FILLER_0_10_97
*593 FILLER_0_11_105
*594 FILLER_0_11_111
*595 FILLER_0_11_113
*596 FILLER_0_11_125
*597 FILLER_0_11_137
*598 FILLER_0_11_149
*599 FILLER_0_11_15
*600 FILLER_0_11_161
*601 FILLER_0_11_167
*602 FILLER_0_11_169
*603 FILLER_0_11_181
*604 FILLER_0_11_193
*605 FILLER_0_11_205
*606 FILLER_0_11_217
*607 FILLER_0_11_223
*608 FILLER_0_11_225
*609 FILLER_0_11_237
*610 FILLER_0_11_249
*611 FILLER_0_11_261
*612 FILLER_0_11_27
*613 FILLER_0_11_273
*614 FILLER_0_11_279
*615 FILLER_0_11_281
*616 FILLER_0_11_293
*617 FILLER_0_11_3
*618 FILLER_0_11_305
*619 FILLER_0_11_317
*620 FILLER_0_11_329
*621 FILLER_0_11_39
*622 FILLER_0_11_51
*623 FILLER_0_11_55
*624 FILLER_0_11_57
*625 FILLER_0_11_69
*626 FILLER_0_11_81
*627 FILLER_0_11_93
*628 FILLER_0_12_109
*629 FILLER_0_12_121
*630 FILLER_0_12_133
*631 FILLER_0_12_139
*632 FILLER_0_12_141
*633 FILLER_0_12_15
*634 FILLER_0_12_153
*635 FILLER_0_12_165
*636 FILLER_0_12_177
*637 FILLER_0_12_189
*638 FILLER_0_12_195
*639 FILLER_0_12_197
*640 FILLER_0_12_209
*641 FILLER_0_12_221
*642 FILLER_0_12_233
*643 FILLER_0_12_245
*644 FILLER_0_12_251
*645 FILLER_0_12_253
*646 FILLER_0_12_265
*647 FILLER_0_12_27
*648 FILLER_0_12_277
*649 FILLER_0_12_289
*650 FILLER_0_12_29
*651 FILLER_0_12_3
*652 FILLER_0_12_301
*653 FILLER_0_12_307
*654 FILLER_0_12_309
*655 FILLER_0_12_321
*656 FILLER_0_12_333
*657 FILLER_0_12_41
*658 FILLER_0_12_53
*659 FILLER_0_12_65
*660 FILLER_0_12_77
*661 FILLER_0_12_83
*662 FILLER_0_12_85
*663 FILLER_0_12_97
*664 FILLER_0_13_105
*665 FILLER_0_13_111
*666 FILLER_0_13_113
*667 FILLER_0_13_125
*668 FILLER_0_13_137
*669 FILLER_0_13_149
*670 FILLER_0_13_15
*671 FILLER_0_13_161
*672 FILLER_0_13_167
*673 FILLER_0_13_169
*674 FILLER_0_13_181
*675 FILLER_0_13_193
*676 FILLER_0_13_205
*677 FILLER_0_13_217
*678 FILLER_0_13_223
*679 FILLER_0_13_225
*680 FILLER_0_13_237
*681 FILLER_0_13_249
*682 FILLER_0_13_261
*683 FILLER_0_13_27
*684 FILLER_0_13_273
*685 FILLER_0_13_279
*686 FILLER_0_13_281
*687 FILLER_0_13_293
*688 FILLER_0_13_3
*689 FILLER_0_13_305
*690 FILLER_0_13_317
*691 FILLER_0_13_329
*692 FILLER_0_13_39
*693 FILLER_0_13_51
*694 FILLER_0_13_55
*695 FILLER_0_13_57
*696 FILLER_0_13_69
*697 FILLER_0_13_81
*698 FILLER_0_13_93
*699 FILLER_0_14_109
*700 FILLER_0_14_121
*701 FILLER_0_14_133
*702 FILLER_0_14_139
*703 FILLER_0_14_141
*704 FILLER_0_14_15
*705 FILLER_0_14_153
*706 FILLER_0_14_165
*707 FILLER_0_14_177
*708 FILLER_0_14_189
*709 FILLER_0_14_195
*710 FILLER_0_14_197
*711 FILLER_0_14_209
*712 FILLER_0_14_221
*713 FILLER_0_14_233
*714 FILLER_0_14_245
*715 FILLER_0_14_251
*716 FILLER_0_14_253
*717 FILLER_0_14_265
*718 FILLER_0_14_27
*719 FILLER_0_14_277
*720 FILLER_0_14_289
*721 FILLER_0_14_29
*722 FILLER_0_14_3
*723 FILLER_0_14_301
*724 FILLER_0_14_307
*725 FILLER_0_14_309
*726 FILLER_0_14_321
*727 FILLER_0_14_333
*728 FILLER_0_14_41
*729 FILLER_0_14_53
*730 FILLER_0_14_65
*731 FILLER_0_14_77
*732 FILLER_0_14_83
*733 FILLER_0_14_85
*734 FILLER_0_14_97
*735 FILLER_0_15_105
*736 FILLER_0_15_111
*737 FILLER_0_15_113
*738 FILLER_0_15_125
*739 FILLER_0_15_137
*740 FILLER_0_15_149
*741 FILLER_0_15_15
*742 FILLER_0_15_161
*743 FILLER_0_15_167
*744 FILLER_0_15_169
*745 FILLER_0_15_181
*746 FILLER_0_15_193
*747 FILLER_0_15_205
*748 FILLER_0_15_217
*749 FILLER_0_15_223
*750 FILLER_0_15_225
*751 FILLER_0_15_237
*752 FILLER_0_15_249
*753 FILLER_0_15_261
*754 FILLER_0_15_27
*755 FILLER_0_15_273
*756 FILLER_0_15_279
*757 FILLER_0_15_281
*758 FILLER_0_15_293
*759 FILLER_0_15_3
*760 FILLER_0_15_305
*761 FILLER_0_15_317
*762 FILLER_0_15_329
*763 FILLER_0_15_39
*764 FILLER_0_15_51
*765 FILLER_0_15_55
*766 FILLER_0_15_57
*767 FILLER_0_15_69
*768 FILLER_0_15_81
*769 FILLER_0_15_93
*770 FILLER_0_16_109
*771 FILLER_0_16_121
*772 FILLER_0_16_133
*773 FILLER_0_16_139
*774 FILLER_0_16_141
*775 FILLER_0_16_15
*776 FILLER_0_16_153
*777 FILLER_0_16_165
*778 FILLER_0_16_177
*779 FILLER_0_16_189
*780 FILLER_0_16_195
*781 FILLER_0_16_197
*782 FILLER_0_16_209
*783 FILLER_0_16_217
*784 FILLER_0_16_221
*785 FILLER_0_16_233
*786 FILLER_0_16_242
*787 FILLER_0_16_250
*788 FILLER_0_16_253
*789 FILLER_0_16_265
*790 FILLER_0_16_27
*791 FILLER_0_16_277
*792 FILLER_0_16_289
*793 FILLER_0_16_29
*794 FILLER_0_16_3
*795 FILLER_0_16_301
*796 FILLER_0_16_307
*797 FILLER_0_16_309
*798 FILLER_0_16_321
*799 FILLER_0_16_333
*800 FILLER_0_16_41
*801 FILLER_0_16_53
*802 FILLER_0_16_65
*803 FILLER_0_16_77
*804 FILLER_0_16_83
*805 FILLER_0_16_85
*806 FILLER_0_16_97
*807 FILLER_0_17_105
*808 FILLER_0_17_111
*809 FILLER_0_17_113
*810 FILLER_0_17_125
*811 FILLER_0_17_137
*812 FILLER_0_17_149
*813 FILLER_0_17_15
*814 FILLER_0_17_161
*815 FILLER_0_17_167
*816 FILLER_0_17_169
*817 FILLER_0_17_175
*818 FILLER_0_17_181
*819 FILLER_0_17_193
*820 FILLER_0_17_200
*821 FILLER_0_17_249
*822 FILLER_0_17_257
*823 FILLER_0_17_27
*824 FILLER_0_17_274
*825 FILLER_0_17_281
*826 FILLER_0_17_287
*827 FILLER_0_17_299
*828 FILLER_0_17_3
*829 FILLER_0_17_311
*830 FILLER_0_17_323
*831 FILLER_0_17_39
*832 FILLER_0_17_51
*833 FILLER_0_17_55
*834 FILLER_0_17_57
*835 FILLER_0_17_69
*836 FILLER_0_17_81
*837 FILLER_0_17_93
*838 FILLER_0_18_109
*839 FILLER_0_18_121
*840 FILLER_0_18_133
*841 FILLER_0_18_139
*842 FILLER_0_18_141
*843 FILLER_0_18_15
*844 FILLER_0_18_153
*845 FILLER_0_18_192
*846 FILLER_0_18_218
*847 FILLER_0_18_230
*848 FILLER_0_18_238
*849 FILLER_0_18_253
*850 FILLER_0_18_261
*851 FILLER_0_18_265
*852 FILLER_0_18_27
*853 FILLER_0_18_275
*854 FILLER_0_18_29
*855 FILLER_0_18_3
*856 FILLER_0_18_306
*857 FILLER_0_18_309
*858 FILLER_0_18_321
*859 FILLER_0_18_333
*860 FILLER_0_18_41
*861 FILLER_0_18_53
*862 FILLER_0_18_65
*863 FILLER_0_18_77
*864 FILLER_0_18_83
*865 FILLER_0_18_85
*866 FILLER_0_18_97
*867 FILLER_0_19_105
*868 FILLER_0_19_111
*869 FILLER_0_19_113
*870 FILLER_0_19_125
*871 FILLER_0_19_137
*872 FILLER_0_19_149
*873 FILLER_0_19_15
*874 FILLER_0_19_157
*875 FILLER_0_19_161
*876 FILLER_0_19_167
*877 FILLER_0_19_169
*878 FILLER_0_19_181
*879 FILLER_0_19_189
*880 FILLER_0_19_206
*881 FILLER_0_19_213
*882 FILLER_0_19_234
*883 FILLER_0_19_252
*884 FILLER_0_19_258
*885 FILLER_0_19_27
*886 FILLER_0_19_270
*887 FILLER_0_19_278
*888 FILLER_0_19_284
*889 FILLER_0_19_296
*890 FILLER_0_19_3
*891 FILLER_0_19_306
*892 FILLER_0_19_318
*893 FILLER_0_19_330
*894 FILLER_0_19_334
*895 FILLER_0_19_39
*896 FILLER_0_19_51
*897 FILLER_0_19_55
*898 FILLER_0_19_57
*899 FILLER_0_19_69
*900 FILLER_0_19_81
*901 FILLER_0_19_93
*902 FILLER_0_1_105
*903 FILLER_0_1_111
*904 FILLER_0_1_113
*905 FILLER_0_1_125
*906 FILLER_0_1_137
*907 FILLER_0_1_149
*908 FILLER_0_1_15
*909 FILLER_0_1_161
*910 FILLER_0_1_167
*911 FILLER_0_1_169
*912 FILLER_0_1_181
*913 FILLER_0_1_193
*914 FILLER_0_1_205
*915 FILLER_0_1_217
*916 FILLER_0_1_223
*917 FILLER_0_1_225
*918 FILLER_0_1_237
*919 FILLER_0_1_249
*920 FILLER_0_1_261
*921 FILLER_0_1_27
*922 FILLER_0_1_273
*923 FILLER_0_1_279
*924 FILLER_0_1_281
*925 FILLER_0_1_293
*926 FILLER_0_1_3
*927 FILLER_0_1_305
*928 FILLER_0_1_317
*929 FILLER_0_1_329
*930 FILLER_0_1_39
*931 FILLER_0_1_51
*932 FILLER_0_1_55
*933 FILLER_0_1_57
*934 FILLER_0_1_69
*935 FILLER_0_1_81
*936 FILLER_0_1_93
*937 FILLER_0_20_109
*938 FILLER_0_20_121
*939 FILLER_0_20_133
*940 FILLER_0_20_139
*941 FILLER_0_20_141
*942 FILLER_0_20_149
*943 FILLER_0_20_15
*944 FILLER_0_20_187
*945 FILLER_0_20_191
*946 FILLER_0_20_209
*947 FILLER_0_20_224
*948 FILLER_0_20_232
*949 FILLER_0_20_243
*950 FILLER_0_20_251
*951 FILLER_0_20_262
*952 FILLER_0_20_27
*953 FILLER_0_20_275
*954 FILLER_0_20_288
*955 FILLER_0_20_29
*956 FILLER_0_20_3
*957 FILLER_0_20_306
*958 FILLER_0_20_309
*959 FILLER_0_20_321
*960 FILLER_0_20_333
*961 FILLER_0_20_41
*962 FILLER_0_20_53
*963 FILLER_0_20_65
*964 FILLER_0_20_77
*965 FILLER_0_20_83
*966 FILLER_0_20_85
*967 FILLER_0_20_97
*968 FILLER_0_21_105
*969 FILLER_0_21_111
*970 FILLER_0_21_113
*971 FILLER_0_21_125
*972 FILLER_0_21_137
*973 FILLER_0_21_149
*974 FILLER_0_21_15
*975 FILLER_0_21_160
*976 FILLER_0_21_169
*977 FILLER_0_21_181
*978 FILLER_0_21_193
*979 FILLER_0_21_201
*980 FILLER_0_21_213
*981 FILLER_0_21_217
*982 FILLER_0_21_223
*983 FILLER_0_21_238
*984 FILLER_0_21_249
*985 FILLER_0_21_261
*986 FILLER_0_21_265
*987 FILLER_0_21_27
*988 FILLER_0_21_270
*989 FILLER_0_21_278
*990 FILLER_0_21_281
*991 FILLER_0_21_293
*992 FILLER_0_21_3
*993 FILLER_0_21_303
*994 FILLER_0_21_315
*995 FILLER_0_21_327
*996 FILLER_0_21_39
*997 FILLER_0_21_51
*998 FILLER_0_21_55
*999 FILLER_0_21_57
*1000 FILLER_0_21_69
*1001 FILLER_0_21_81
*1002 FILLER_0_21_93
*1003 FILLER_0_22_109
*1004 FILLER_0_22_121
*1005 FILLER_0_22_133
*1006 FILLER_0_22_139
*1007 FILLER_0_22_141
*1008 FILLER_0_22_15
*1009 FILLER_0_22_167
*1010 FILLER_0_22_188
*1011 FILLER_0_22_197
*1012 FILLER_0_22_209
*1013 FILLER_0_22_220
*1014 FILLER_0_22_232
*1015 FILLER_0_22_253
*1016 FILLER_0_22_27
*1017 FILLER_0_22_29
*1018 FILLER_0_22_3
*1019 FILLER_0_22_303
*1020 FILLER_0_22_307
*1021 FILLER_0_22_309
*1022 FILLER_0_22_317
*1023 FILLER_0_22_321
*1024 FILLER_0_22_333
*1025 FILLER_0_22_41
*1026 FILLER_0_22_53
*1027 FILLER_0_22_65
*1028 FILLER_0_22_77
*1029 FILLER_0_22_83
*1030 FILLER_0_22_85
*1031 FILLER_0_22_97
*1032 FILLER_0_23_105
*1033 FILLER_0_23_111
*1034 FILLER_0_23_113
*1035 FILLER_0_23_125
*1036 FILLER_0_23_137
*1037 FILLER_0_23_149
*1038 FILLER_0_23_15
*1039 FILLER_0_23_157
*1040 FILLER_0_23_164
*1041 FILLER_0_23_169
*1042 FILLER_0_23_183
*1043 FILLER_0_23_208
*1044 FILLER_0_23_220
*1045 FILLER_0_23_232
*1046 FILLER_0_23_246
*1047 FILLER_0_23_258
*1048 FILLER_0_23_27
*1049 FILLER_0_23_270
*1050 FILLER_0_23_278
*1051 FILLER_0_23_288
*1052 FILLER_0_23_296
*1053 FILLER_0_23_3
*1054 FILLER_0_23_334
*1055 FILLER_0_23_39
*1056 FILLER_0_23_51
*1057 FILLER_0_23_55
*1058 FILLER_0_23_57
*1059 FILLER_0_23_69
*1060 FILLER_0_23_81
*1061 FILLER_0_23_93
*1062 FILLER_0_24_109
*1063 FILLER_0_24_116
*1064 FILLER_0_24_128
*1065 FILLER_0_24_132
*1066 FILLER_0_24_15
*1067 FILLER_0_24_154
*1068 FILLER_0_24_170
*1069 FILLER_0_24_188
*1070 FILLER_0_24_197
*1071 FILLER_0_24_203
*1072 FILLER_0_24_219
*1073 FILLER_0_24_223
*1074 FILLER_0_24_236
*1075 FILLER_0_24_240
*1076 FILLER_0_24_247
*1077 FILLER_0_24_251
*1078 FILLER_0_24_27
*1079 FILLER_0_24_276
*1080 FILLER_0_24_288
*1081 FILLER_0_24_29
*1082 FILLER_0_24_3
*1083 FILLER_0_24_300
*1084 FILLER_0_24_309
*1085 FILLER_0_24_321
*1086 FILLER_0_24_333
*1087 FILLER_0_24_41
*1088 FILLER_0_24_53
*1089 FILLER_0_24_65
*1090 FILLER_0_24_73
*1091 FILLER_0_24_94
*1092 FILLER_0_25_110
*1093 FILLER_0_25_113
*1094 FILLER_0_25_134
*1095 FILLER_0_25_149
*1096 FILLER_0_25_15
*1097 FILLER_0_25_169
*1098 FILLER_0_25_175
*1099 FILLER_0_25_183
*1100 FILLER_0_25_189
*1101 FILLER_0_25_202
*1102 FILLER_0_25_211
*1103 FILLER_0_25_231
*1104 FILLER_0_25_239
*1105 FILLER_0_25_251
*1106 FILLER_0_25_259
*1107 FILLER_0_25_266
*1108 FILLER_0_25_27
*1109 FILLER_0_25_274
*1110 FILLER_0_25_279
*1111 FILLER_0_25_281
*1112 FILLER_0_25_294
*1113 FILLER_0_25_3
*1114 FILLER_0_25_320
*1115 FILLER_0_25_329
*1116 FILLER_0_25_39
*1117 FILLER_0_25_51
*1118 FILLER_0_25_55
*1119 FILLER_0_25_57
*1120 FILLER_0_25_65
*1121 FILLER_0_25_77
*1122 FILLER_0_26_100
*1123 FILLER_0_26_104
*1124 FILLER_0_26_112
*1125 FILLER_0_26_119
*1126 FILLER_0_26_131
*1127 FILLER_0_26_139
*1128 FILLER_0_26_15
*1129 FILLER_0_26_176
*1130 FILLER_0_26_190
*1131 FILLER_0_26_197
*1132 FILLER_0_26_201
*1133 FILLER_0_26_205
*1134 FILLER_0_26_217
*1135 FILLER_0_26_232
*1136 FILLER_0_26_248
*1137 FILLER_0_26_253
*1138 FILLER_0_26_259
*1139 FILLER_0_26_27
*1140 FILLER_0_26_270
*1141 FILLER_0_26_278
*1142 FILLER_0_26_29
*1143 FILLER_0_26_296
*1144 FILLER_0_26_3
*1145 FILLER_0_26_309
*1146 FILLER_0_26_320
*1147 FILLER_0_26_332
*1148 FILLER_0_26_37
*1149 FILLER_0_26_45
*1150 FILLER_0_26_66
*1151 FILLER_0_26_78
*1152 FILLER_0_26_92
*1153 FILLER_0_27_110
*1154 FILLER_0_27_113
*1155 FILLER_0_27_139
*1156 FILLER_0_27_148
*1157 FILLER_0_27_15
*1158 FILLER_0_27_160
*1159 FILLER_0_27_166
*1160 FILLER_0_27_169
*1161 FILLER_0_27_177
*1162 FILLER_0_27_191
*1163 FILLER_0_27_218
*1164 FILLER_0_27_233
*1165 FILLER_0_27_250
*1166 FILLER_0_27_256
*1167 FILLER_0_27_27
*1168 FILLER_0_27_272
*1169 FILLER_0_27_290
*1170 FILLER_0_27_298
*1171 FILLER_0_27_3
*1172 FILLER_0_27_312
*1173 FILLER_0_27_320
*1174 FILLER_0_27_333
*1175 FILLER_0_27_39
*1176 FILLER_0_27_43
*1177 FILLER_0_27_47
*1178 FILLER_0_27_55
*1179 FILLER_0_27_57
*1180 FILLER_0_27_80
*1181 FILLER_0_27_86
*1182 FILLER_0_27_94
*1183 FILLER_0_28_108
*1184 FILLER_0_28_120
*1185 FILLER_0_28_124
*1186 FILLER_0_28_138
*1187 FILLER_0_28_15
*1188 FILLER_0_28_152
*1189 FILLER_0_28_158
*1190 FILLER_0_28_172
*1191 FILLER_0_28_191
*1192 FILLER_0_28_195
*1193 FILLER_0_28_197
*1194 FILLER_0_28_202
*1195 FILLER_0_28_214
*1196 FILLER_0_28_218
*1197 FILLER_0_28_228
*1198 FILLER_0_28_236
*1199 FILLER_0_28_246
*1200 FILLER_0_28_253
*1201 FILLER_0_28_269
*1202 FILLER_0_28_27
*1203 FILLER_0_28_29
*1204 FILLER_0_28_294
*1205 FILLER_0_28_3
*1206 FILLER_0_28_300
*1207 FILLER_0_28_320
*1208 FILLER_0_28_332
*1209 FILLER_0_28_37
*1210 FILLER_0_28_55
*1211 FILLER_0_28_65
*1212 FILLER_0_28_77
*1213 FILLER_0_28_83
*1214 FILLER_0_28_92
*1215 FILLER_0_28_96
*1216 FILLER_0_29_109
*1217 FILLER_0_29_120
*1218 FILLER_0_29_15
*1219 FILLER_0_29_153
*1220 FILLER_0_29_164
*1221 FILLER_0_29_175
*1222 FILLER_0_29_183
*1223 FILLER_0_29_195
*1224 FILLER_0_29_201
*1225 FILLER_0_29_214
*1226 FILLER_0_29_222
*1227 FILLER_0_29_233
*1228 FILLER_0_29_255
*1229 FILLER_0_29_268
*1230 FILLER_0_29_27
*1231 FILLER_0_29_289
*1232 FILLER_0_29_3
*1233 FILLER_0_29_300
*1234 FILLER_0_29_312
*1235 FILLER_0_29_319
*1236 FILLER_0_29_329
*1237 FILLER_0_29_43
*1238 FILLER_0_29_81
*1239 FILLER_0_29_93
*1240 FILLER_0_2_109
*1241 FILLER_0_2_121
*1242 FILLER_0_2_133
*1243 FILLER_0_2_139
*1244 FILLER_0_2_141
*1245 FILLER_0_2_15
*1246 FILLER_0_2_153
*1247 FILLER_0_2_165
*1248 FILLER_0_2_177
*1249 FILLER_0_2_189
*1250 FILLER_0_2_195
*1251 FILLER_0_2_197
*1252 FILLER_0_2_209
*1253 FILLER_0_2_221
*1254 FILLER_0_2_233
*1255 FILLER_0_2_245
*1256 FILLER_0_2_251
*1257 FILLER_0_2_253
*1258 FILLER_0_2_265
*1259 FILLER_0_2_27
*1260 FILLER_0_2_277
*1261 FILLER_0_2_289
*1262 FILLER_0_2_29
*1263 FILLER_0_2_3
*1264 FILLER_0_2_301
*1265 FILLER_0_2_307
*1266 FILLER_0_2_309
*1267 FILLER_0_2_321
*1268 FILLER_0_2_333
*1269 FILLER_0_2_41
*1270 FILLER_0_2_53
*1271 FILLER_0_2_65
*1272 FILLER_0_2_77
*1273 FILLER_0_2_83
*1274 FILLER_0_2_85
*1275 FILLER_0_2_97
*1276 FILLER_0_30_101
*1277 FILLER_0_30_105
*1278 FILLER_0_30_11
*1279 FILLER_0_30_120
*1280 FILLER_0_30_126
*1281 FILLER_0_30_141
*1282 FILLER_0_30_147
*1283 FILLER_0_30_156
*1284 FILLER_0_30_168
*1285 FILLER_0_30_188
*1286 FILLER_0_30_216
*1287 FILLER_0_30_220
*1288 FILLER_0_30_229
*1289 FILLER_0_30_241
*1290 FILLER_0_30_249
*1291 FILLER_0_30_258
*1292 FILLER_0_30_26
*1293 FILLER_0_30_265
*1294 FILLER_0_30_277
*1295 FILLER_0_30_281
*1296 FILLER_0_30_29
*1297 FILLER_0_30_294
*1298 FILLER_0_30_3
*1299 FILLER_0_30_307
*1300 FILLER_0_30_309
*1301 FILLER_0_30_318
*1302 FILLER_0_30_330
*1303 FILLER_0_30_334
*1304 FILLER_0_30_41
*1305 FILLER_0_30_53
*1306 FILLER_0_30_65
*1307 FILLER_0_30_77
*1308 FILLER_0_30_83
*1309 FILLER_0_30_93
*1310 FILLER_0_31_101
*1311 FILLER_0_31_109
*1312 FILLER_0_31_11
*1313 FILLER_0_31_141
*1314 FILLER_0_31_166
*1315 FILLER_0_31_182
*1316 FILLER_0_31_194
*1317 FILLER_0_31_21
*1318 FILLER_0_31_212
*1319 FILLER_0_31_234
*1320 FILLER_0_31_249
*1321 FILLER_0_31_259
*1322 FILLER_0_31_270
*1323 FILLER_0_31_278
*1324 FILLER_0_31_291
*1325 FILLER_0_31_3
*1326 FILLER_0_31_304
*1327 FILLER_0_31_317
*1328 FILLER_0_31_321
*1329 FILLER_0_31_329
*1330 FILLER_0_31_33
*1331 FILLER_0_31_41
*1332 FILLER_0_31_62
*1333 FILLER_0_31_79
*1334 FILLER_0_31_85
*1335 FILLER_0_32_106
*1336 FILLER_0_32_11
*1337 FILLER_0_32_139
*1338 FILLER_0_32_141
*1339 FILLER_0_32_153
*1340 FILLER_0_32_175
*1341 FILLER_0_32_189
*1342 FILLER_0_32_195
*1343 FILLER_0_32_197
*1344 FILLER_0_32_212
*1345 FILLER_0_32_223
*1346 FILLER_0_32_240
*1347 FILLER_0_32_253
*1348 FILLER_0_32_261
*1349 FILLER_0_32_27
*1350 FILLER_0_32_273
*1351 FILLER_0_32_280
*1352 FILLER_0_32_285
*1353 FILLER_0_32_29
*1354 FILLER_0_32_296
*1355 FILLER_0_32_3
*1356 FILLER_0_32_315
*1357 FILLER_0_32_327
*1358 FILLER_0_32_43
*1359 FILLER_0_32_55
*1360 FILLER_0_32_59
*1361 FILLER_0_32_69
*1362 FILLER_0_32_75
*1363 FILLER_0_32_82
*1364 FILLER_0_33_111
*1365 FILLER_0_33_113
*1366 FILLER_0_33_157
*1367 FILLER_0_33_167
*1368 FILLER_0_33_169
*1369 FILLER_0_33_173
*1370 FILLER_0_33_181
*1371 FILLER_0_33_193
*1372 FILLER_0_33_201
*1373 FILLER_0_33_206
*1374 FILLER_0_33_218
*1375 FILLER_0_33_225
*1376 FILLER_0_33_237
*1377 FILLER_0_33_24
*1378 FILLER_0_33_243
*1379 FILLER_0_33_253
*1380 FILLER_0_33_258
*1381 FILLER_0_33_270
*1382 FILLER_0_33_278
*1383 FILLER_0_33_281
*1384 FILLER_0_33_289
*1385 FILLER_0_33_3
*1386 FILLER_0_33_304
*1387 FILLER_0_33_310
*1388 FILLER_0_33_322
*1389 FILLER_0_33_334
*1390 FILLER_0_33_45
*1391 FILLER_0_33_53
*1392 FILLER_0_33_57
*1393 FILLER_0_33_76
*1394 FILLER_0_33_84
*1395 FILLER_0_34_139
*1396 FILLER_0_34_161
*1397 FILLER_0_34_167
*1398 FILLER_0_34_192
*1399 FILLER_0_34_201
*1400 FILLER_0_34_213
*1401 FILLER_0_34_236
*1402 FILLER_0_34_249
*1403 FILLER_0_34_260
*1404 FILLER_0_34_29
*1405 FILLER_0_34_294
*1406 FILLER_0_34_3
*1407 FILLER_0_34_307
*1408 FILLER_0_34_309
*1409 FILLER_0_34_321
*1410 FILLER_0_34_33
*1411 FILLER_0_34_40
*1412 FILLER_0_34_48
*1413 FILLER_0_35_15
*1414 FILLER_0_35_151
*1415 FILLER_0_35_165
*1416 FILLER_0_35_187
*1417 FILLER_0_35_199
*1418 FILLER_0_35_210
*1419 FILLER_0_35_222
*1420 FILLER_0_35_233
*1421 FILLER_0_35_239
*1422 FILLER_0_35_247
*1423 FILLER_0_35_254
*1424 FILLER_0_35_266
*1425 FILLER_0_35_278
*1426 FILLER_0_35_290
*1427 FILLER_0_35_3
*1428 FILLER_0_35_302
*1429 FILLER_0_35_318
*1430 FILLER_0_35_324
*1431 FILLER_0_35_332
*1432 FILLER_0_35_34
*1433 FILLER_0_35_48
*1434 FILLER_0_35_57
*1435 FILLER_0_36_11
*1436 FILLER_0_36_170
*1437 FILLER_0_36_184
*1438 FILLER_0_36_195
*1439 FILLER_0_36_197
*1440 FILLER_0_36_20
*1441 FILLER_0_36_201
*1442 FILLER_0_36_205
*1443 FILLER_0_36_230
*1444 FILLER_0_36_234
*1445 FILLER_0_36_250
*1446 FILLER_0_36_258
*1447 FILLER_0_36_290
*1448 FILLER_0_36_3
*1449 FILLER_0_36_303
*1450 FILLER_0_36_307
*1451 FILLER_0_36_309
*1452 FILLER_0_36_332
*1453 FILLER_0_36_49
*1454 FILLER_0_36_56
*1455 FILLER_0_36_82
*1456 FILLER_0_36_98
*1457 FILLER_0_37_15
*1458 FILLER_0_37_166
*1459 FILLER_0_37_185
*1460 FILLER_0_37_197
*1461 FILLER_0_37_203
*1462 FILLER_0_37_215
*1463 FILLER_0_37_223
*1464 FILLER_0_37_225
*1465 FILLER_0_37_237
*1466 FILLER_0_37_241
*1467 FILLER_0_37_250
*1468 FILLER_0_37_258
*1469 FILLER_0_37_263
*1470 FILLER_0_37_27
*1471 FILLER_0_37_275
*1472 FILLER_0_37_279
*1473 FILLER_0_37_287
*1474 FILLER_0_37_294
*1475 FILLER_0_37_298
*1476 FILLER_0_37_3
*1477 FILLER_0_37_306
*1478 FILLER_0_37_31
*1479 FILLER_0_37_314
*1480 FILLER_0_37_329
*1481 FILLER_0_37_45
*1482 FILLER_0_37_52
*1483 FILLER_0_38_10
*1484 FILLER_0_38_113
*1485 FILLER_0_38_14
*1486 FILLER_0_38_164
*1487 FILLER_0_38_169
*1488 FILLER_0_38_177
*1489 FILLER_0_38_18
*1490 FILLER_0_38_192
*1491 FILLER_0_38_204
*1492 FILLER_0_38_210
*1493 FILLER_0_38_22
*1494 FILLER_0_38_225
*1495 FILLER_0_38_241
*1496 FILLER_0_38_273
*1497 FILLER_0_38_279
*1498 FILLER_0_38_29
*1499 FILLER_0_38_296
*1500 FILLER_0_38_305
*1501 FILLER_0_38_313
*1502 FILLER_0_38_57
*1503 FILLER_0_38_6
*1504 FILLER_0_38_85
*1505 FILLER_0_3_105
*1506 FILLER_0_3_111
*1507 FILLER_0_3_113
*1508 FILLER_0_3_125
*1509 FILLER_0_3_137
*1510 FILLER_0_3_149
*1511 FILLER_0_3_15
*1512 FILLER_0_3_161
*1513 FILLER_0_3_167
*1514 FILLER_0_3_169
*1515 FILLER_0_3_181
*1516 FILLER_0_3_193
*1517 FILLER_0_3_205
*1518 FILLER_0_3_217
*1519 FILLER_0_3_223
*1520 FILLER_0_3_225
*1521 FILLER_0_3_237
*1522 FILLER_0_3_249
*1523 FILLER_0_3_261
*1524 FILLER_0_3_27
*1525 FILLER_0_3_273
*1526 FILLER_0_3_279
*1527 FILLER_0_3_281
*1528 FILLER_0_3_293
*1529 FILLER_0_3_3
*1530 FILLER_0_3_305
*1531 FILLER_0_3_317
*1532 FILLER_0_3_329
*1533 FILLER_0_3_39
*1534 FILLER_0_3_51
*1535 FILLER_0_3_55
*1536 FILLER_0_3_57
*1537 FILLER_0_3_69
*1538 FILLER_0_3_81
*1539 FILLER_0_3_93
*1540 FILLER_0_4_109
*1541 FILLER_0_4_121
*1542 FILLER_0_4_133
*1543 FILLER_0_4_139
*1544 FILLER_0_4_141
*1545 FILLER_0_4_15
*1546 FILLER_0_4_153
*1547 FILLER_0_4_165
*1548 FILLER_0_4_177
*1549 FILLER_0_4_189
*1550 FILLER_0_4_195
*1551 FILLER_0_4_197
*1552 FILLER_0_4_209
*1553 FILLER_0_4_221
*1554 FILLER_0_4_233
*1555 FILLER_0_4_245
*1556 FILLER_0_4_251
*1557 FILLER_0_4_253
*1558 FILLER_0_4_265
*1559 FILLER_0_4_27
*1560 FILLER_0_4_277
*1561 FILLER_0_4_289
*1562 FILLER_0_4_29
*1563 FILLER_0_4_3
*1564 FILLER_0_4_301
*1565 FILLER_0_4_307
*1566 FILLER_0_4_309
*1567 FILLER_0_4_321
*1568 FILLER_0_4_333
*1569 FILLER_0_4_41
*1570 FILLER_0_4_53
*1571 FILLER_0_4_65
*1572 FILLER_0_4_77
*1573 FILLER_0_4_83
*1574 FILLER_0_4_85
*1575 FILLER_0_4_97
*1576 FILLER_0_5_105
*1577 FILLER_0_5_111
*1578 FILLER_0_5_113
*1579 FILLER_0_5_125
*1580 FILLER_0_5_137
*1581 FILLER_0_5_149
*1582 FILLER_0_5_15
*1583 FILLER_0_5_161
*1584 FILLER_0_5_167
*1585 FILLER_0_5_169
*1586 FILLER_0_5_181
*1587 FILLER_0_5_193
*1588 FILLER_0_5_205
*1589 FILLER_0_5_217
*1590 FILLER_0_5_223
*1591 FILLER_0_5_225
*1592 FILLER_0_5_237
*1593 FILLER_0_5_249
*1594 FILLER_0_5_261
*1595 FILLER_0_5_27
*1596 FILLER_0_5_273
*1597 FILLER_0_5_279
*1598 FILLER_0_5_281
*1599 FILLER_0_5_293
*1600 FILLER_0_5_3
*1601 FILLER_0_5_305
*1602 FILLER_0_5_317
*1603 FILLER_0_5_329
*1604 FILLER_0_5_39
*1605 FILLER_0_5_51