*SPEF "ieee 1481-1999"
*DESIGN "tt_um_rejunity_vga"
*DATE "19:53:34 Saturday June 01, 2024"
*VENDOR "The OpenROAD Project"
*PROGRAM "OpenROAD"
*VERSION "da0053d7b0014ab9c87ea148875ff6c2a0f9b658"
*DESIGN_FLOW "NAME_SCOPE LOCAL" "PIN_CAP NONE"
*DIVIDER /
*DELIMITER :
*BUS_DELIMITER []
*T_UNIT 1 NS
*C_UNIT 1 PF
*R_UNIT 1 OHM
*L_UNIT 1 HENRY

*NAME_MAP
*3 clk
*4 ena
*5 rst_n
*6 ui_in[0]
*7 ui_in[1]
*8 ui_in[2]
*9 ui_in[3]
*10 ui_in[4]
*11 ui_in[5]
*12 ui_in[6]
*13 ui_in[7]
*14 uio_in[0]
*15 uio_in[1]
*16 uio_in[2]
*17 uio_in[3]
*18 uio_in[4]
*19 uio_in[5]
*20 uio_in[6]
*21 uio_in[7]
*22 net3
*23 net4
*24 net5
*25 net6
*26 net7
*27 net8
*28 net9
*29 net10
*30 net11
*31 net12
*32 net13
*33 net14
*34 net15
*35 net16
*36 net17
*37 net18
*38 uo_out[0]
*39 uo_out[1]
*40 uo_out[2]
*41 uo_out[3]
*42 uo_out[4]
*43 uo_out[5]
*44 uo_out[6]
*45 uo_out[7]
*46 _000_
*47 _001_
*48 _002_
*49 _003_
*50 _004_
*51 _005_
*52 _006_
*53 _007_
*54 _008_
*55 _009_
*56 _010_
*57 _011_
*58 _012_
*59 _013_
*60 _014_
*61 _015_
*62 _016_
*63 _017_
*64 _018_
*65 _019_
*66 _020_
*67 _021_
*68 _022_
*69 _023_
*70 _024_
*71 _025_
*72 _026_
*73 _027_
*74 _028_
*75 _029_
*76 _030_
*77 _031_
*78 _032_
*79 _033_
*80 _034_
*81 _035_
*82 _036_
*83 _037_
*84 _038_
*85 _039_
*86 _040_
*87 _041_
*88 _042_
*89 _043_
*90 _044_
*91 _045_
*92 _046_
*93 _047_
*94 _048_
*95 _049_
*96 _050_
*97 _051_
*98 _052_
*99 _053_
*100 _054_
*101 _055_
*102 _056_
*103 _057_
*104 _058_
*105 _059_
*106 _060_
*107 _061_
*108 _062_
*109 _063_
*110 _064_
*111 _065_
*112 _066_
*113 _067_
*114 _068_
*115 _069_
*116 _070_
*117 _071_
*118 _072_
*119 _073_
*120 _074_
*121 _075_
*122 _076_
*123 _077_
*124 _078_
*125 _079_
*126 _080_
*127 _081_
*128 _082_
*129 _083_
*130 _084_
*131 _085_
*132 _086_
*133 _087_
*134 _088_
*135 _089_
*136 _090_
*137 _091_
*138 _092_
*139 _093_
*140 _094_
*141 _095_
*142 _096_
*143 _097_
*144 _098_
*145 _099_
*146 _100_
*147 _101_
*148 _102_
*149 _103_
*150 _104_
*151 _105_
*152 _106_
*153 _107_
*154 _108_
*155 _109_
*156 _110_
*157 _111_
*158 _112_
*159 _113_
*160 _114_
*161 _115_
*162 _116_
*163 _117_
*164 _118_
*165 _119_
*166 _120_
*167 _121_
*168 _122_
*169 _123_
*170 _124_
*171 _125_
*172 _126_
*173 _127_
*174 _128_
*175 _129_
*176 _130_
*177 _131_
*178 _132_
*179 _133_
*180 _134_
*181 _135_
*182 _136_
*183 _137_
*184 _138_
*185 _139_
*186 _140_
*187 _141_
*188 _142_
*189 _143_
*190 _144_
*191 _145_
*192 _146_
*193 _147_
*194 _148_
*195 _149_
*196 _150_
*197 _151_
*198 _152_
*199 _153_
*200 _154_
*201 _155_
*202 _156_
*203 _157_
*204 _158_
*205 _159_
*206 _160_
*207 _161_
*208 _162_
*209 _163_
*210 _164_
*211 _165_
*212 _166_
*213 _167_
*214 _168_
*215 _169_
*216 _170_
*217 _171_
*218 _172_
*219 _173_
*220 _174_
*221 _175_
*222 _176_
*223 _177_
*224 _178_
*225 _179_
*226 _180_
*227 _181_
*228 _182_
*229 _183_
*230 _184_
*231 _185_
*232 _186_
*233 _187_
*234 _188_
*235 _189_
*236 _190_
*237 _191_
*238 _192_
*239 _193_
*240 _194_
*241 _195_
*242 _196_
*243 _197_
*244 _198_
*245 _199_
*246 _200_
*247 _201_
*248 _202_
*249 _203_
*250 _204_
*251 _205_
*252 _206_
*253 _207_
*254 _208_
*255 _209_
*256 _210_
*257 _211_
*258 _212_
*259 _213_
*260 _214_
*261 _215_
*262 _216_
*263 _217_
*264 _218_
*265 _219_
*266 _220_
*267 _221_
*268 _222_
*269 _223_
*270 _224_
*271 _225_
*272 _226_
*273 _227_
*274 _228_
*275 _229_
*276 _230_
*277 _231_
*278 _232_
*279 _233_
*280 _234_
*281 _235_
*282 _236_
*283 _237_
*284 _238_
*285 _239_
*286 _240_
*287 _241_
*288 _242_
*289 _243_
*290 _244_
*291 _245_
*292 _246_
*293 _247_
*294 _248_
*295 _249_
*296 _250_
*297 _251_
*298 _252_
*299 _253_
*300 _254_
*301 _255_
*302 _256_
*303 _257_
*304 _258_
*305 _259_
*306 _260_
*307 _261_
*308 _262_
*309 _263_
*310 _264_
*311 _265_
*312 _266_
*313 _267_
*314 _268_
*315 _269_
*316 _270_
*317 _271_
*318 _272_
*319 _273_
*320 _274_
*321 _275_
*322 _276_
*323 _277_
*324 _278_
*325 _279_
*326 _280_
*327 _281_
*328 _282_
*329 _283_
*330 _284_
*331 _285_
*332 _286_
*333 _287_
*334 _288_
*335 _289_
*336 _290_
*337 _291_
*338 _292_
*339 _293_
*340 _294_
*341 _295_
*342 _296_
*343 _297_
*344 _298_
*345 _299_
*346 _300_
*347 _301_
*348 _302_
*349 _303_
*350 _304_
*351 _305_
*352 _306_
*353 _307_
*354 _308_
*355 _309_
*356 _310_
*357 _311_
*358 _312_
*359 _313_
*360 _314_
*361 _315_
*362 _316_
*363 _317_
*364 _318_
*365 _319_
*366 _320_
*367 _321_
*368 _322_
*369 _323_
*370 _324_
*371 _325_
*372 _326_
*373 _327_
*374 _328_
*375 _329_
*376 _330_
*377 _331_
*378 _332_
*379 _333_
*380 _334_
*381 clknet_0_clk
*382 clknet_1_0__leaf_clk
*383 clknet_1_1__leaf_clk
*384 counter\[0\]
*385 counter\[1\]
*386 counter\[2\]
*387 counter\[3\]
*388 counter\[4\]
*389 counter\[5\]
*390 counter\[6\]
*391 counter\[7\]
*392 counter\[8\]
*393 counter\[9\]
*394 hvsync_gen\.hpos\[0\]
*395 hvsync_gen\.hpos\[1\]
*396 hvsync_gen\.hpos\[2\]
*397 hvsync_gen\.hpos\[3\]
*398 hvsync_gen\.hpos\[4\]
*399 hvsync_gen\.hpos\[5\]
*400 hvsync_gen\.hpos\[6\]
*401 hvsync_gen\.hpos\[7\]
*402 hvsync_gen\.hpos\[8\]
*403 hvsync_gen\.hpos\[9\]
*404 hvsync_gen\.hsync
*405 hvsync_gen\.vpos\[0\]
*406 hvsync_gen\.vpos\[1\]
*407 hvsync_gen\.vpos\[2\]
*408 hvsync_gen\.vpos\[3\]
*409 hvsync_gen\.vpos\[4\]
*410 hvsync_gen\.vpos\[5\]
*411 hvsync_gen\.vpos\[6\]
*412 hvsync_gen\.vpos\[7\]
*413 hvsync_gen\.vpos\[8\]
*414 hvsync_gen\.vpos\[9\]
*415 hvsync_gen\.vsync
*416 net1
*417 net19
*418 net2
*419 net20
*420 net21
*421 net22
*422 net23
*423 net24
*424 FILLER_0_0_109
*425 FILLER_0_0_113
*426 FILLER_0_0_125
*427 FILLER_0_0_137
*428 FILLER_0_0_141
*429 FILLER_0_0_15
*430 FILLER_0_0_153
*431 FILLER_0_0_165
*432 FILLER_0_0_169
*433 FILLER_0_0_181
*434 FILLER_0_0_193
*435 FILLER_0_0_197
*436 FILLER_0_0_209
*437 FILLER_0_0_221
*438 FILLER_0_0_225
*439 FILLER_0_0_237
*440 FILLER_0_0_249
*441 FILLER_0_0_253
*442 FILLER_0_0_265
*443 FILLER_0_0_27
*444 FILLER_0_0_277
*445 FILLER_0_0_281
*446 FILLER_0_0_29
*447 FILLER_0_0_293
*448 FILLER_0_0_3
*449 FILLER_0_0_305
*450 FILLER_0_0_309
*451 FILLER_0_0_321
*452 FILLER_0_0_333
*453 FILLER_0_0_337
*454 FILLER_0_0_349
*455 FILLER_0_0_361
*456 FILLER_0_0_365
*457 FILLER_0_0_377
*458 FILLER_0_0_389
*459 FILLER_0_0_393
*460 FILLER_0_0_405
*461 FILLER_0_0_41
*462 FILLER_0_0_417
*463 FILLER_0_0_421
*464 FILLER_0_0_433
*465 FILLER_0_0_445
*466 FILLER_0_0_449
*467 FILLER_0_0_461
*468 FILLER_0_0_473
*469 FILLER_0_0_477
*470 FILLER_0_0_489
*471 FILLER_0_0_501
*472 FILLER_0_0_505
*473 FILLER_0_0_517
*474 FILLER_0_0_529
*475 FILLER_0_0_53
*476 FILLER_0_0_533
*477 FILLER_0_0_545
*478 FILLER_0_0_557
*479 FILLER_0_0_561
*480 FILLER_0_0_57
*481 FILLER_0_0_573
*482 FILLER_0_0_585
*483 FILLER_0_0_589
*484 FILLER_0_0_601
*485 FILLER_0_0_613
*486 FILLER_0_0_617
*487 FILLER_0_0_629
*488 FILLER_0_0_641
*489 FILLER_0_0_645
*490 FILLER_0_0_657
*491 FILLER_0_0_669
*492 FILLER_0_0_673
*493 FILLER_0_0_685
*494 FILLER_0_0_69
*495 FILLER_0_0_697
*496 FILLER_0_0_701
*497 FILLER_0_0_81
*498 FILLER_0_0_85
*499 FILLER_0_0_97
*500 FILLER_0_10_109
*501 FILLER_0_10_121
*502 FILLER_0_10_133
*503 FILLER_0_10_139
*504 FILLER_0_10_141
*505 FILLER_0_10_15
*506 FILLER_0_10_153
*507 FILLER_0_10_165
*508 FILLER_0_10_177
*509 FILLER_0_10_189
*510 FILLER_0_10_195
*511 FILLER_0_10_197
*512 FILLER_0_10_209
*513 FILLER_0_10_221
*514 FILLER_0_10_233
*515 FILLER_0_10_245
*516 FILLER_0_10_251
*517 FILLER_0_10_253
*518 FILLER_0_10_265
*519 FILLER_0_10_27
*520 FILLER_0_10_277
*521 FILLER_0_10_289
*522 FILLER_0_10_29
*523 FILLER_0_10_3
*524 FILLER_0_10_301
*525 FILLER_0_10_307
*526 FILLER_0_10_309
*527 FILLER_0_10_321
*528 FILLER_0_10_333
*529 FILLER_0_10_345
*530 FILLER_0_10_357
*531 FILLER_0_10_363
*532 FILLER_0_10_365
*533 FILLER_0_10_377
*534 FILLER_0_10_389
*535 FILLER_0_10_401
*536 FILLER_0_10_41
*537 FILLER_0_10_413
*538 FILLER_0_10_419
*539 FILLER_0_10_421
*540 FILLER_0_10_433
*541 FILLER_0_10_445
*542 FILLER_0_10_457
*543 FILLER_0_10_469
*544 FILLER_0_10_475
*545 FILLER_0_10_477
*546 FILLER_0_10_489
*547 FILLER_0_10_501
*548 FILLER_0_10_513
*549 FILLER_0_10_525
*550 FILLER_0_10_53
*551 FILLER_0_10_531
*552 FILLER_0_10_533
*553 FILLER_0_10_545
*554 FILLER_0_10_557
*555 FILLER_0_10_569
*556 FILLER_0_10_581
*557 FILLER_0_10_587
*558 FILLER_0_10_589
*559 FILLER_0_10_601
*560 FILLER_0_10_613
*561 FILLER_0_10_625
*562 FILLER_0_10_637
*563 FILLER_0_10_643
*564 FILLER_0_10_645
*565 FILLER_0_10_65
*566 FILLER_0_10_657
*567 FILLER_0_10_669
*568 FILLER_0_10_681
*569 FILLER_0_10_693
*570 FILLER_0_10_699
*571 FILLER_0_10_701
*572 FILLER_0_10_77
*573 FILLER_0_10_83
*574 FILLER_0_10_85
*575 FILLER_0_10_97
*576 FILLER_0_11_105
*577 FILLER_0_11_111
*578 FILLER_0_11_113
*579 FILLER_0_11_125
*580 FILLER_0_11_137
*581 FILLER_0_11_149
*582 FILLER_0_11_15
*583 FILLER_0_11_161
*584 FILLER_0_11_167
*585 FILLER_0_11_169
*586 FILLER_0_11_181
*587 FILLER_0_11_193
*588 FILLER_0_11_205
*589 FILLER_0_11_217
*590 FILLER_0_11_223
*591 FILLER_0_11_225
*592 FILLER_0_11_237
*593 FILLER_0_11_249
*594 FILLER_0_11_261
*595 FILLER_0_11_27
*596 FILLER_0_11_273
*597 FILLER_0_11_279
*598 FILLER_0_11_281
*599 FILLER_0_11_293
*600 FILLER_0_11_3
*601 FILLER_0_11_305
*602 FILLER_0_11_317
*603 FILLER_0_11_329
*604 FILLER_0_11_335
*605 FILLER_0_11_337
*606 FILLER_0_11_349
*607 FILLER_0_11_361
*608 FILLER_0_11_373
*609 FILLER_0_11_385
*610 FILLER_0_11_39
*611 FILLER_0_11_391
*612 FILLER_0_11_393
*613 FILLER_0_11_405
*614 FILLER_0_11_417
*615 FILLER_0_11_429
*616 FILLER_0_11_441
*617 FILLER_0_11_447
*618 FILLER_0_11_449
*619 FILLER_0_11_461
*620 FILLER_0_11_473
*621 FILLER_0_11_485
*622 FILLER_0_11_497
*623 FILLER_0_11_503
*624 FILLER_0_11_505
*625 FILLER_0_11_51
*626 FILLER_0_11_517
*627 FILLER_0_11_529
*628 FILLER_0_11_541
*629 FILLER_0_11_55
*630 FILLER_0_11_553
*631 FILLER_0_11_559
*632 FILLER_0_11_561
*633 FILLER_0_11_57
*634 FILLER_0_11_573
*635 FILLER_0_11_585
*636 FILLER_0_11_597
*637 FILLER_0_11_609
*638 FILLER_0_11_615
*639 FILLER_0_11_617
*640 FILLER_0_11_629
*641 FILLER_0_11_641
*642 FILLER_0_11_653
*643 FILLER_0_11_665
*644 FILLER_0_11_671
*645 FILLER_0_11_673
*646 FILLER_0_11_685
*647 FILLER_0_11_69
*648 FILLER_0_11_697
*649 FILLER_0_11_709
*650 FILLER_0_11_81
*651 FILLER_0_11_93
*652 FILLER_0_12_109
*653 FILLER_0_12_121
*654 FILLER_0_12_133
*655 FILLER_0_12_139
*656 FILLER_0_12_141
*657 FILLER_0_12_15
*658 FILLER_0_12_153
*659 FILLER_0_12_165
*660 FILLER_0_12_177
*661 FILLER_0_12_189
*662 FILLER_0_12_195
*663 FILLER_0_12_197
*664 FILLER_0_12_209
*665 FILLER_0_12_221
*666 FILLER_0_12_233
*667 FILLER_0_12_245
*668 FILLER_0_12_251
*669 FILLER_0_12_253
*670 FILLER_0_12_265
*671 FILLER_0_12_27
*672 FILLER_0_12_277
*673 FILLER_0_12_289
*674 FILLER_0_12_29
*675 FILLER_0_12_3
*676 FILLER_0_12_301
*677 FILLER_0_12_307
*678 FILLER_0_12_309
*679 FILLER_0_12_321
*680 FILLER_0_12_333
*681 FILLER_0_12_345
*682 FILLER_0_12_357
*683 FILLER_0_12_363
*684 FILLER_0_12_365
*685 FILLER_0_12_377
*686 FILLER_0_12_389
*687 FILLER_0_12_401
*688 FILLER_0_12_41
*689 FILLER_0_12_413
*690 FILLER_0_12_419
*691 FILLER_0_12_421
*692 FILLER_0_12_433
*693 FILLER_0_12_445
*694 FILLER_0_12_457
*695 FILLER_0_12_469
*696 FILLER_0_12_475
*697 FILLER_0_12_477
*698 FILLER_0_12_489
*699 FILLER_0_12_501
*700 FILLER_0_12_513
*701 FILLER_0_12_525
*702 FILLER_0_12_53
*703 FILLER_0_12_531
*704 FILLER_0_12_533
*705 FILLER_0_12_545
*706 FILLER_0_12_557
*707 FILLER_0_12_569
*708 FILLER_0_12_581
*709 FILLER_0_12_587
*710 FILLER_0_12_589
*711 FILLER_0_12_601
*712 FILLER_0_12_613
*713 FILLER_0_12_625
*714 FILLER_0_12_637
*715 FILLER_0_12_643
*716 FILLER_0_12_645
*717 FILLER_0_12_65
*718 FILLER_0_12_657
*719 FILLER_0_12_669
*720 FILLER_0_12_681
*721 FILLER_0_12_693
*722 FILLER_0_12_699
*723 FILLER_0_12_701
*724 FILLER_0_12_77
*725 FILLER_0_12_83
*726 FILLER_0_12_85
*727 FILLER_0_12_97
*728 FILLER_0_13_105
*729 FILLER_0_13_111
*730 FILLER_0_13_113
*731 FILLER_0_13_125
*732 FILLER_0_13_137
*733 FILLER_0_13_149
*734 FILLER_0_13_15
*735 FILLER_0_13_161
*736 FILLER_0_13_167
*737 FILLER_0_13_169
*738 FILLER_0_13_181
*739 FILLER_0_13_193
*740 FILLER_0_13_205
*741 FILLER_0_13_217
*742 FILLER_0_13_223
*743 FILLER_0_13_225
*744 FILLER_0_13_237
*745 FILLER_0_13_249
*746 FILLER_0_13_261
*747 FILLER_0_13_27
*748 FILLER_0_13_273
*749 FILLER_0_13_279
*750 FILLER_0_13_281
*751 FILLER_0_13_293
*752 FILLER_0_13_3
*753 FILLER_0_13_305
*754 FILLER_0_13_317
*755 FILLER_0_13_329
*756 FILLER_0_13_335
*757 FILLER_0_13_337
*758 FILLER_0_13_349
*759 FILLER_0_13_361
*760 FILLER_0_13_373
*761 FILLER_0_13_385
*762 FILLER_0_13_39
*763 FILLER_0_13_391
*764 FILLER_0_13_393
*765 FILLER_0_13_405
*766 FILLER_0_13_417
*767 FILLER_0_13_429
*768 FILLER_0_13_441
*769 FILLER_0_13_447
*770 FILLER_0_13_449
*771 FILLER_0_13_461
*772 FILLER_0_13_473
*773 FILLER_0_13_485
*774 FILLER_0_13_497
*775 FILLER_0_13_503
*776 FILLER_0_13_505
*777 FILLER_0_13_51
*778 FILLER_0_13_517
*779 FILLER_0_13_529
*780 FILLER_0_13_541
*781 FILLER_0_13_55
*782 FILLER_0_13_553
*783 FILLER_0_13_559
*784 FILLER_0_13_561
*785 FILLER_0_13_57
*786 FILLER_0_13_573
*787 FILLER_0_13_585
*788 FILLER_0_13_597
*789 FILLER_0_13_609
*790 FILLER_0_13_615
*791 FILLER_0_13_617
*792 FILLER_0_13_629
*793 FILLER_0_13_641
*794 FILLER_0_13_653
*795 FILLER_0_13_665
*796 FILLER_0_13_671
*797 FILLER_0_13_673
*798 FILLER_0_13_685
*799 FILLER_0_13_69
*800 FILLER_0_13_697
*801 FILLER_0_13_709
*802 FILLER_0_13_81
*803 FILLER_0_13_93
*804 FILLER_0_14_109
*805 FILLER_0_14_121
*806 FILLER_0_14_133
*807 FILLER_0_14_139
*808 FILLER_0_14_141
*809 FILLER_0_14_15
*810 FILLER_0_14_153
*811 FILLER_0_14_165
*812 FILLER_0_14_177
*813 FILLER_0_14_189
*814 FILLER_0_14_195
*815 FILLER_0_14_197
*816 FILLER_0_14_209
*817 FILLER_0_14_221
*818 FILLER_0_14_233
*819 FILLER_0_14_245
*820 FILLER_0_14_251
*821 FILLER_0_14_253
*822 FILLER_0_14_265
*823 FILLER_0_14_27
*824 FILLER_0_14_277
*825 FILLER_0_14_289
*826 FILLER_0_14_29
*827 FILLER_0_14_3
*828 FILLER_0_14_301
*829 FILLER_0_14_307
*830 FILLER_0_14_309
*831 FILLER_0_14_321
*832 FILLER_0_14_333
*833 FILLER_0_14_345
*834 FILLER_0_14_357
*835 FILLER_0_14_363
*836 FILLER_0_14_365
*837 FILLER_0_14_377
*838 FILLER_0_14_389
*839 FILLER_0_14_401
*840 FILLER_0_14_41
*841 FILLER_0_14_413
*842 FILLER_0_14_419
*843 FILLER_0_14_421
*844 FILLER_0_14_433
*845 FILLER_0_14_445
*846 FILLER_0_14_457
*847 FILLER_0_14_469
*848 FILLER_0_14_475
*849 FILLER_0_14_477
*850 FILLER_0_14_489
*851 FILLER_0_14_501
*852 FILLER_0_14_513
*853 FILLER_0_14_525
*854 FILLER_0_14_53
*855 FILLER_0_14_531
*856 FILLER_0_14_533
*857 FILLER_0_14_545
*858 FILLER_0_14_557
*859 FILLER_0_14_569
*860 FILLER_0_14_581
*861 FILLER_0_14_587
*862 FILLER_0_14_589
*863 FILLER_0_14_601
*864 FILLER_0_14_613
*865 FILLER_0_14_625
*866 FILLER_0_14_637
*867 FILLER_0_14_643
*868 FILLER_0_14_645
*869 FILLER_0_14_65
*870 FILLER_0_14_657
*871 FILLER_0_14_669
*872 FILLER_0_14_681
*873 FILLER_0_14_693
*874 FILLER_0_14_699
*875 FILLER_0_14_701
*876 FILLER_0_14_77
*877 FILLER_0_14_83
*878 FILLER_0_14_85
*879 FILLER_0_14_97
*880 FILLER_0_15_105
*881 FILLER_0_15_111
*882 FILLER_0_15_113
*883 FILLER_0_15_125
*884 FILLER_0_15_137
*885 FILLER_0_15_149
*886 FILLER_0_15_15
*887 FILLER_0_15_161
*888 FILLER_0_15_167
*889 FILLER_0_15_169
*890 FILLER_0_15_181
*891 FILLER_0_15_193
*892 FILLER_0_15_205
*893 FILLER_0_15_217
*894 FILLER_0_15_223
*895 FILLER_0_15_225
*896 FILLER_0_15_237
*897 FILLER_0_15_249
*898 FILLER_0_15_261
*899 FILLER_0_15_27
*900 FILLER_0_15_273
*901 FILLER_0_15_279
*902 FILLER_0_15_281
*903 FILLER_0_15_293
*904 FILLER_0_15_3
*905 FILLER_0_15_305
*906 FILLER_0_15_317
*907 FILLER_0_15_329
*908 FILLER_0_15_335
*909 FILLER_0_15_337
*910 FILLER_0_15_349
*911 FILLER_0_15_361
*912 FILLER_0_15_373
*913 FILLER_0_15_385
*914 FILLER_0_15_39
*915 FILLER_0_15_391
*916 FILLER_0_15_393
*917 FILLER_0_15_405
*918 FILLER_0_15_417
*919 FILLER_0_15_429
*920 FILLER_0_15_441
*921 FILLER_0_15_447
*922 FILLER_0_15_449
*923 FILLER_0_15_461
*924 FILLER_0_15_473
*925 FILLER_0_15_485
*926 FILLER_0_15_497
*927 FILLER_0_15_503
*928 FILLER_0_15_505
*929 FILLER_0_15_51
*930 FILLER_0_15_517
*931 FILLER_0_15_529
*932 FILLER_0_15_541
*933 FILLER_0_15_55
*934 FILLER_0_15_553
*935 FILLER_0_15_559
*936 FILLER_0_15_561
*937 FILLER_0_15_57
*938 FILLER_0_15_573
*939 FILLER_0_15_585
*940 FILLER_0_15_597
*941 FILLER_0_15_609
*942 FILLER_0_15_615
*943 FILLER_0_15_617
*944 FILLER_0_15_629
*945 FILLER_0_15_641
*946 FILLER_0_15_653
*947 FILLER_0_15_665
*948 FILLER_0_15_671
*949 FILLER_0_15_673
*950 FILLER_0_15_685
*951 FILLER_0_15_69
*952 FILLER_0_15_697
*953 FILLER_0_15_709
*954 FILLER_0_15_81
*955 FILLER_0_15_93
*956 FILLER_0_16_109
*957 FILLER_0_16_121
*958 FILLER_0_16_133
*959 FILLER_0_16_139
*960 FILLER_0_16_141
*961 FILLER_0_16_15
*962 FILLER_0_16_153
*963 FILLER_0_16_165
*964 FILLER_0_16_177
*965 FILLER_0_16_189
*966 FILLER_0_16_195
*967 FILLER_0_16_197
*968 FILLER_0_16_209
*969 FILLER_0_16_221
*970 FILLER_0_16_233
*971 FILLER_0_16_245
*972 FILLER_0_16_251
*973 FILLER_0_16_253
*974 FILLER_0_16_265
*975 FILLER_0_16_27
*976 FILLER_0_16_277
*977 FILLER_0_16_289
*978 FILLER_0_16_29
*979 FILLER_0_16_3
*980 FILLER_0_16_301
*981 FILLER_0_16_307
*982 FILLER_0_16_309
*983 FILLER_0_16_321
*984 FILLER_0_16_333
*985 FILLER_0_16_345
*986 FILLER_0_16_357
*987 FILLER_0_16_363
*988 FILLER_0_16_365
*989 FILLER_0_16_377
*990 FILLER_0_16_389
*991 FILLER_0_16_401
*992 FILLER_0_16_41
*993 FILLER_0_16_413
*994 FILLER_0_16_419
*995 FILLER_0_16_421
*996 FILLER_0_16_433
*997 FILLER_0_16_445
*998 FILLER_0_16_457
*999 FILLER_0_16_469
*1000 FILLER_0_16_475
*1001 FILLER_0_16_477
*1002 FILLER_0_16_489
*1003 FILLER_0_16_501
*1004 FILLER_0_16_513
*1005 FILLER_0_16_525
*1006 FILLER_0_16_53
*1007 FILLER_0_16_531
*1008 FILLER_0_16_533
*1009 FILLER_0_16_545
*1010 FILLER_0_16_557
*1011 FILLER_0_16_569
*1012 FILLER_0_16_581
*1013 FILLER_0_16_587
*1014 FILLER_0_16_589
*1015 FILLER_0_16_601
*1016 FILLER_0_16_613
*1017 FILLER_0_16_625
*1018 FILLER_0_16_637
*1019 FILLER_0_16_643
*1020 FILLER_0_16_645
*1021 FILLER_0_16_65
*1022 FILLER_0_16_657
*1023 FILLER_0_16_669
*1024 FILLER_0_16_681
*1025 FILLER_0_16_693
*1026 FILLER_0_16_699
*1027 FILLER_0_16_701
*1028 FILLER_0_16_77
*1029 FILLER_0_16_83
*1030 FILLER_0_16_85
*1031 FILLER_0_16_97
*1032 FILLER_0_17_105
*1033 FILLER_0_17_111
*1034 FILLER_0_17_113
*1035 FILLER_0_17_125
*1036 FILLER_0_17_137
*1037 FILLER_0_17_149
*1038 FILLER_0_17_15
*1039 FILLER_0_17_161
*1040 FILLER_0_17_167
*1041 FILLER_0_17_169
*1042 FILLER_0_17_181
*1043 FILLER_0_17_193
*1044 FILLER_0_17_205
*1045 FILLER_0_17_217
*1046 FILLER_0_17_223
*1047 FILLER_0_17_225
*1048 FILLER_0_17_237
*1049 FILLER_0_17_249
*1050 FILLER_0_17_261
*1051 FILLER_0_17_27
*1052 FILLER_0_17_273
*1053 FILLER_0_17_279
*1054 FILLER_0_17_281
*1055 FILLER_0_17_293
*1056 FILLER_0_17_3
*1057 FILLER_0_17_305
*1058 FILLER_0_17_317
*1059 FILLER_0_17_329
*1060 FILLER_0_17_335
*1061 FILLER_0_17_337
*1062 FILLER_0_17_349
*1063 FILLER_0_17_361
*1064 FILLER_0_17_373
*1065 FILLER_0_17_385
*1066 FILLER_0_17_39
*1067 FILLER_0_17_391
*1068 FILLER_0_17_393
*1069 FILLER_0_17_405
*1070 FILLER_0_17_417
*1071 FILLER_0_17_429
*1072 FILLER_0_17_441
*1073 FILLER_0_17_447
*1074 FILLER_0_17_449
*1075 FILLER_0_17_461
*1076 FILLER_0_17_473
*1077 FILLER_0_17_485
*1078 FILLER_0_17_497
*1079 FILLER_0_17_503
*1080 FILLER_0_17_505
*1081 FILLER_0_17_51
*1082 FILLER_0_17_517
*1083 FILLER_0_17_529
*1084 FILLER_0_17_541
*1085 FILLER_0_17_55
*1086 FILLER_0_17_553
*1087 FILLER_0_17_559
*1088 FILLER_0_17_561
*1089 FILLER_0_17_57
*1090 FILLER_0_17_573
*1091 FILLER_0_17_585
*1092 FILLER_0_17_597
*1093 FILLER_0_17_609
*1094 FILLER_0_17_615
*1095 FILLER_0_17_617
*1096 FILLER_0_17_629
*1097 FILLER_0_17_641
*1098 FILLER_0_17_653
*1099 FILLER_0_17_665
*1100 FILLER_0_17_671
*1101 FILLER_0_17_673
*1102 FILLER_0_17_685
*1103 FILLER_0_17_69
*1104 FILLER_0_17_697
*1105 FILLER_0_17_709
*1106 FILLER_0_17_81
*1107 FILLER_0_17_93
*1108 FILLER_0_18_109
*1109 FILLER_0_18_121
*1110 FILLER_0_18_133
*1111 FILLER_0_18_139
*1112 FILLER_0_18_141
*1113 FILLER_0_18_15
*1114 FILLER_0_18_153
*1115 FILLER_0_18_165
*1116 FILLER_0_18_177
*1117 FILLER_0_18_189
*1118 FILLER_0_18_195
*1119 FILLER_0_18_197
*1120 FILLER_0_18_209
*1121 FILLER_0_18_221
*1122 FILLER_0_18_233
*1123 FILLER_0_18_245
*1124 FILLER_0_18_251
*1125 FILLER_0_18_253
*1126 FILLER_0_18_265
*1127 FILLER_0_18_27
*1128 FILLER_0_18_277
*1129 FILLER_0_18_289
*1130 FILLER_0_18_29
*1131 FILLER_0_18_3
*1132 FILLER_0_18_301
*1133 FILLER_0_18_307
*1134 FILLER_0_18_309
*1135 FILLER_0_18_321
*1136 FILLER_0_18_333
*1137 FILLER_0_18_345
*1138 FILLER_0_18_357
*1139 FILLER_0_18_363
*1140 FILLER_0_18_365
*1141 FILLER_0_18_377
*1142 FILLER_0_18_389
*1143 FILLER_0_18_401
*1144 FILLER_0_18_41
*1145 FILLER_0_18_413
*1146 FILLER_0_18_419
*1147 FILLER_0_18_421
*1148 FILLER_0_18_433
*1149 FILLER_0_18_445
*1150 FILLER_0_18_457
*1151 FILLER_0_18_469
*1152 FILLER_0_18_475
*1153 FILLER_0_18_477
*1154 FILLER_0_18_489
*1155 FILLER_0_18_501
*1156 FILLER_0_18_513
*1157 FILLER_0_18_525
*1158 FILLER_0_18_53
*1159 FILLER_0_18_531
*1160 FILLER_0_18_533
*1161 FILLER_0_18_545
*1162 FILLER_0_18_557
*1163 FILLER_0_18_569
*1164 FILLER_0_18_581
*1165 FILLER_0_18_587
*1166 FILLER_0_18_589
*1167 FILLER_0_18_601
*1168 FILLER_0_18_613
*1169 FILLER_0_18_625
*1170 FILLER_0_18_637
*1171 FILLER_0_18_643
*1172 FILLER_0_18_645
*1173 FILLER_0_18_65
*1174 FILLER_0_18_657
*1175 FILLER_0_18_669
*1176 FILLER_0_18_681
*1177 FILLER_0_18_693
*1178 FILLER_0_18_699
*1179 FILLER_0_18_701
*1180 FILLER_0_18_77
*1181 FILLER_0_18_83
*1182 FILLER_0_18_85
*1183 FILLER_0_18_97
*1184 FILLER_0_19_105
*1185 FILLER_0_19_111
*1186 FILLER_0_19_113
*1187 FILLER_0_19_125
*1188 FILLER_0_19_137
*1189 FILLER_0_19_149
*1190 FILLER_0_19_15
*1191 FILLER_0_19_161
*1192 FILLER_0_19_167
*1193 FILLER_0_19_169
*1194 FILLER_0_19_181
*1195 FILLER_0_19_193
*1196 FILLER_0_19_205
*1197 FILLER_0_19_217
*1198 FILLER_0_19_223
*1199 FILLER_0_19_225
*1200 FILLER_0_19_237
*1201 FILLER_0_19_249
*1202 FILLER_0_19_261
*1203 FILLER_0_19_27
*1204 FILLER_0_19_273
*1205 FILLER_0_19_279
*1206 FILLER_0_19_281
*1207 FILLER_0_19_293
*1208 FILLER_0_19_3
*1209 FILLER_0_19_305
*1210 FILLER_0_19_317
*1211 FILLER_0_19_329
*1212 FILLER_0_19_335
*1213 FILLER_0_19_337
*1214 FILLER_0_19_349
*1215 FILLER_0_19_361
*1216 FILLER_0_19_373
*1217 FILLER_0_19_385
*1218 FILLER_0_19_39
*1219 FILLER_0_19_391
*1220 FILLER_0_19_393
*1221 FILLER_0_19_405
*1222 FILLER_0_19_417
*1223 FILLER_0_19_429
*1224 FILLER_0_19_441
*1225 FILLER_0_19_447
*1226 FILLER_0_19_449
*1227 FILLER_0_19_461
*1228 FILLER_0_19_473
*1229 FILLER_0_19_485
*1230 FILLER_0_19_497
*1231 FILLER_0_19_503
*1232 FILLER_0_19_505
*1233 FILLER_0_19_51
*1234 FILLER_0_19_517
*1235 FILLER_0_19_529
*1236 FILLER_0_19_541
*1237 FILLER_0_19_55
*1238 FILLER_0_19_553
*1239 FILLER_0_19_559
*1240 FILLER_0_19_561
*1241 FILLER_0_19_57
*1242 FILLER_0_19_573
*1243 FILLER_0_19_585
*1244 FILLER_0_19_597
*1245 FILLER_0_19_609
*1246 FILLER_0_19_615
*1247 FILLER_0_19_617
*1248 FILLER_0_19_629
*1249 FILLER_0_19_641
*1250 FILLER_0_19_653
*1251 FILLER_0_19_665
*1252 FILLER_0_19_671
*1253 FILLER_0_19_673
*1254 FILLER_0_19_685
*1255 FILLER_0_19_69
*1256 FILLER_0_19_697
*1257 FILLER_0_19_709
*1258 FILLER_0_19_81
*1259 FILLER_0_19_93
*1260 FILLER_0_1_105
*1261 FILLER_0_1_111
*1262 FILLER_0_1_113
*1263 FILLER_0_1_125
*1264 FILLER_0_1_137
*1265 FILLER_0_1_149
*1266 FILLER_0_1_15
*1267 FILLER_0_1_161
*1268 FILLER_0_1_167
*1269 FILLER_0_1_169
*1270 FILLER_0_1_181
*1271 FILLER_0_1_193
*1272 FILLER_0_1_205
*1273 FILLER_0_1_217
*1274 FILLER_0_1_223
*1275 FILLER_0_1_225
*1276 FILLER_0_1_237
*1277 FILLER_0_1_249
*1278 FILLER_0_1_261
*1279 FILLER_0_1_27
*1280 FILLER_0_1_273
*1281 FILLER_0_1_279
*1282 FILLER_0_1_281
*1283 FILLER_0_1_293
*1284 FILLER_0_1_3
*1285 FILLER_0_1_305
*1286 FILLER_0_1_317
*1287 FILLER_0_1_329
*1288 FILLER_0_1_335
*1289 FILLER_0_1_337
*1290 FILLER_0_1_349
*1291 FILLER_0_1_361
*1292 FILLER_0_1_373
*1293 FILLER_0_1_385
*1294 FILLER_0_1_39
*1295 FILLER_0_1_391
*1296 FILLER_0_1_393
*1297 FILLER_0_1_405
*1298 FILLER_0_1_417
*1299 FILLER_0_1_429
*1300 FILLER_0_1_441
*1301 FILLER_0_1_447
*1302 FILLER_0_1_449
*1303 FILLER_0_1_461
*1304 FILLER_0_1_473
*1305 FILLER_0_1_485
*1306 FILLER_0_1_497
*1307 FILLER_0_1_503
*1308 FILLER_0_1_505
*1309 FILLER_0_1_51
*1310 FILLER_0_1_517
*1311 FILLER_0_1_529
*1312 FILLER_0_1_541
*1313 FILLER_0_1_55
*1314 FILLER_0_1_553
*1315 FILLER_0_1_559
*1316 FILLER_0_1_561
*1317 FILLER_0_1_57
*1318 FILLER_0_1_573
*1319 FILLER_0_1_585
*1320 FILLER_0_1_597
*1321 FILLER_0_1_609
*1322 FILLER_0_1_615
*1323 FILLER_0_1_617
*1324 FILLER_0_1_629
*1325 FILLER_0_1_641
*1326 FILLER_0_1_653
*1327 FILLER_0_1_665
*1328 FILLER_0_1_671
*1329 FILLER_0_1_673
*1330 FILLER_0_1_685
*1331 FILLER_0_1_69
*1332 FILLER_0_1_697
*1333 FILLER_0_1_709
*1334 FILLER_0_1_81
*1335 FILLER_0_1_93
*1336 FILLER_0_20_109
*1337 FILLER_0_20_121
*1338 FILLER_0_20_133
*1339 FILLER_0_20_139
*1340 FILLER_0_20_141
*1341 FILLER_0_20_15
*1342 FILLER_0_20_153
*1343 FILLER_0_20_165
*1344 FILLER_0_20_177
*1345 FILLER_0_20_189
*1346 FILLER_0_20_195
*1347 FILLER_0_20_197
*1348 FILLER_0_20_209
*1349 FILLER_0_20_221
*1350 FILLER_0_20_233
*1351 FILLER_0_20_245
*1352 FILLER_0_20_251
*1353 FILLER_0_20_253
*1354 FILLER_0_20_265
*1355 FILLER_0_20_27
*1356 FILLER_0_20_277
*1357 FILLER_0_20_289
*1358 FILLER_0_20_29
*1359 FILLER_0_20_3
*1360 FILLER_0_20_301
*1361 FILLER_0_20_307
*1362 FILLER_0_20_309
*1363 FILLER_0_20_321
*1364 FILLER_0_20_333
*1365 FILLER_0_20_345
*1366 FILLER_0_20_357
*1367 FILLER_0_20_363
*1368 FILLER_0_20_365
*1369 FILLER_0_20_377
*1370 FILLER_0_20_389
*1371 FILLER_0_20_401
*1372 FILLER_0_20_41
*1373 FILLER_0_20_413
*1374 FILLER_0_20_419
*1375 FILLER_0_20_421
*1376 FILLER_0_20_433
*1377 FILLER_0_20_445
*1378 FILLER_0_20_457
*1379 FILLER_0_20_469
*1380 FILLER_0_20_475
*1381 FILLER_0_20_477
*1382 FILLER_0_20_489
*1383 FILLER_0_20_501
*1384 FILLER_0_20_513
*1385 FILLER_0_20_525
*1386 FILLER_0_20_53
*1387 FILLER_0_20_531
*1388 FILLER_0_20_533
*1389 FILLER_0_20_545
*1390 FILLER_0_20_557
*1391 FILLER_0_20_569
*1392 FILLER_0_20_581
*1393 FILLER_0_20_587
*1394 FILLER_0_20_589
*1395 FILLER_0_20_601
*1396 FILLER_0_20_613
*1397 FILLER_0_20_625
*1398 FILLER_0_20_637
*1399 FILLER_0_20_643
*1400 FILLER_0_20_645
*1401 FILLER_0_20_65
*1402 FILLER_0_20_657
*1403 FILLER_0_20_669
*1404 FILLER_0_20_681
*1405 FILLER_0_20_693
*1406 FILLER_0_20_699
*1407 FILLER_0_20_701
*1408 FILLER_0_20_77
*1409 FILLER_0_20_83
*1410 FILLER_0_20_85
*1411 FILLER_0_20_97
*1412 FILLER_0_21_105
*1413 FILLER_0_21_111
*1414 FILLER_0_21_113
*1415 FILLER_0_21_125
*1416 FILLER_0_21_137
*1417 FILLER_0_21_149
*1418 FILLER_0_21_15
*1419 FILLER_0_21_161
*1420 FILLER_0_21_167
*1421 FILLER_0_21_169
*1422 FILLER_0_21_181
*1423 FILLER_0_21_193
*1424 FILLER_0_21_205
*1425 FILLER_0_21_217
*1426 FILLER_0_21_223
*1427 FILLER_0_21_225
*1428 FILLER_0_21_237
*1429 FILLER_0_21_249
*1430 FILLER_0_21_261
*1431 FILLER_0_21_27
*1432 FILLER_0_21_273
*1433 FILLER_0_21_279
*1434 FILLER_0_21_281
*1435 FILLER_0_21_293
*1436 FILLER_0_21_3
*1437 FILLER_0_21_305
*1438 FILLER_0_21_317
*1439 FILLER_0_21_329
*1440 FILLER_0_21_335
*1441 FILLER_0_21_337
*1442 FILLER_0_21_349
*1443 FILLER_0_21_361
*1444 FILLER_0_21_373
*1445 FILLER_0_21_385
*1446 FILLER_0_21_39
*1447 FILLER_0_21_391
*1448 FILLER_0_21_393
*1449 FILLER_0_21_405
*1450 FILLER_0_21_417
*1451 FILLER_0_21_429
*1452 FILLER_0_21_441
*1453 FILLER_0_21_447
*1454 FILLER_0_21_449
*1455 FILLER_0_21_461
*1456 FILLER_0_21_473
*1457 FILLER_0_21_485
*1458 FILLER_0_21_497
*1459 FILLER_0_21_503
*1460 FILLER_0_21_505
*1461 FILLER_0_21_51
*1462 FILLER_0_21_517
*1463 FILLER_0_21_529
*1464 FILLER_0_21_541
*1465 FILLER_0_21_55
*1466 FILLER_0_21_553
*1467 FILLER_0_21_559
*1468 FILLER_0_21_561
*1469 FILLER_0_21_57
*1470 FILLER_0_21_573
*1471 FILLER_0_21_585
*1472 FILLER_0_21_597
*1473 FILLER_0_21_609
*1474 FILLER_0_21_615
*1475 FILLER_0_21_617
*1476 FILLER_0_21_629
*1477 FILLER_0_21_641
*1478 FILLER_0_21_653
*1479 FILLER_0_21_665
*1480 FILLER_0_21_671
*1481 FILLER_0_21_673
*1482 FILLER_0_21_685
*1483 FILLER_0_21_69
*1484 FILLER_0_21_697
*1485 FILLER_0_21_709
*1486 FILLER_0_21_81
*1487 FILLER_0_21_93
*1488 FILLER_0_22_109
*1489 FILLER_0_22_121
*1490 FILLER_0_22_133
*1491 FILLER_0_22_139
*1492 FILLER_0_22_141
*1493 FILLER_0_22_15
*1494 FILLER_0_22_153
*1495 FILLER_0_22_165
*1496 FILLER_0_22_177
*1497 FILLER_0_22_189
*1498 FILLER_0_22_195
*1499 FILLER_0_22_197
*1500 FILLER_0_22_209
*1501 FILLER_0_22_221
*1502 FILLER_0_22_233
*1503 FILLER_0_22_245
*1504 FILLER_0_22_251
*1505 FILLER_0_22_253
*1506 FILLER_0_22_265
*1507 FILLER_0_22_27
*1508 FILLER_0_22_277
*1509 FILLER_0_22_289
*1510 FILLER_0_22_29
*1511 FILLER_0_22_3
*1512 FILLER_0_22_301
*1513 FILLER_0_22_307
*1514 FILLER_0_22_309
*1515 FILLER_0_22_321
*1516 FILLER_0_22_333
*1517 FILLER_0_22_345
*1518 FILLER_0_22_357
*1519 FILLER_0_22_363
*1520 FILLER_0_22_365
*1521 FILLER_0_22_377
*1522 FILLER_0_22_389
*1523 FILLER_0_22_401
*1524 FILLER_0_22_41
*1525 FILLER_0_22_413
*1526 FILLER_0_22_419
*1527 FILLER_0_22_421
*1528 FILLER_0_22_433
*1529 FILLER_0_22_445
*1530 FILLER_0_22_457
*1531 FILLER_0_22_469
*1532 FILLER_0_22_475
*1533 FILLER_0_22_477
*1534 FILLER_0_22_489
*1535 FILLER_0_22_501
*1536 FILLER_0_22_513
*1537 FILLER_0_22_525
*1538 FILLER_0_22_53
*1539 FILLER_0_22_531
*1540 FILLER_0_22_533
*1541 FILLER_0_22_545
*1542 FILLER_0_22_557
*1543 FILLER_0_22_569
*1544 FILLER_0_22_581
*1545 FILLER_0_22_587
*1546 FILLER_0_22_589
*1547 FILLER_0_22_601
*1548 FILLER_0_22_613
*1549 FILLER_0_22_625
*1550 FILLER_0_22_637
*1551 FILLER_0_22_643
*1552 FILLER_0_22_645
*1553 FILLER_0_22_65
*1554 FILLER_0_22_657
*1555 FILLER_0_22_669
*1556 FILLER_0_22_681
*1557 FILLER_0_22_693
*1558 FILLER_0_22_699
*1559 FILLER_0_22_701
*1560 FILLER_0_22_77
*1561 FILLER_0_22_83
*1562 FILLER_0_22_85
*1563 FILLER_0_22_97
*1564 FILLER_0_23_105
*1565 FILLER_0_23_111
*1566 FILLER_0_23_113
*1567 FILLER_0_23_125
*1568 FILLER_0_23_137
*1569 FILLER_0_23_149
*1570 FILLER_0_23_15
*1571 FILLER_0_23_161
*1572 FILLER_0_23_167
*1573 FILLER_0_23_169
*1574 FILLER_0_23_181
*1575 FILLER_0_23_193
*1576 FILLER_0_23_205
*1577 FILLER_0_23_217
*1578 FILLER_0_23_223
*1579 FILLER_0_23_225
*1580 FILLER_0_23_237
*1581 FILLER_0_23_249
*1582 FILLER_0_23_261