*SPEF "ieee 1481-1999"
*DESIGN "tt_um_serdes"
*DATE "15:39:49 Thursday May 16, 2024"
*VENDOR "The OpenROAD Project"
*PROGRAM "OpenROAD"
*VERSION "da0053d7b0014ab9c87ea148875ff6c2a0f9b658"
*DESIGN_FLOW "NAME_SCOPE LOCAL" "PIN_CAP NONE"
*DIVIDER /
*DELIMITER :
*BUS_DELIMITER []
*T_UNIT 1 NS
*C_UNIT 1 PF
*R_UNIT 1 OHM
*L_UNIT 1 HENRY

*NAME_MAP
*3 clk
*4 ena
*5 rst_n
*6 ui_in[0]
*7 ui_in[1]
*8 ui_in[2]
*9 ui_in[3]
*10 ui_in[4]
*11 ui_in[5]
*12 ui_in[6]
*13 ui_in[7]
*14 uio_in[0]
*15 uio_in[1]
*16 uio_in[2]
*17 uio_in[3]
*18 uio_in[4]
*19 uio_in[5]
*20 uio_in[6]
*21 uio_in[7]
*22 net22
*23 net23
*24 net24
*25 net25
*26 net26
*27 net27
*28 net28
*29 net29
*30 uio_out[0]
*31 net30
*32 net31
*33 net32
*34 net33
*35 net34
*36 net35
*37 net36
*38 uo_out[0]
*39 uo_out[1]
*40 uo_out[2]
*41 uo_out[3]
*42 uo_out[4]
*43 uo_out[5]
*44 uo_out[6]
*45 uo_out[7]
*46 _000_
*47 _001_
*48 _002_
*49 _003_
*50 _004_
*51 _005_
*52 _006_
*53 _007_
*54 _008_
*55 _009_
*56 _010_
*57 _011_
*58 _012_
*59 _013_
*60 _014_
*61 _015_
*62 _016_
*63 _017_
*64 _018_
*65 _019_
*66 _020_
*67 _021_
*68 _022_
*69 _023_
*70 _024_
*71 _025_
*72 _026_
*73 _027_
*74 _028_
*75 _029_
*76 _030_
*77 _031_
*78 _032_
*79 _033_
*80 _034_
*81 _035_
*82 _036_
*83 _037_
*84 _038_
*85 _039_
*86 _040_
*87 _041_
*88 _042_
*89 _043_
*90 _044_
*91 _045_
*92 _046_
*93 _047_
*94 _048_
*95 _049_
*96 _050_
*97 _051_
*98 _052_
*99 _053_
*100 _054_
*101 _055_
*102 _056_
*103 _057_
*104 _058_
*105 _059_
*106 _060_
*107 _061_
*108 _062_
*109 _063_
*110 _064_
*111 _065_
*112 _066_
*113 _067_
*114 _068_
*115 _069_
*116 _070_
*117 _071_
*118 _072_
*119 _073_
*120 _074_
*121 _075_
*122 _076_
*123 _077_
*124 _078_
*125 _079_
*126 _080_
*127 _081_
*128 _082_
*129 _083_
*130 _084_
*131 _085_
*132 _086_
*133 _087_
*134 _088_
*135 _089_
*136 _090_
*137 _091_
*138 _092_
*139 _093_
*140 _094_
*141 _095_
*142 _096_
*143 _097_
*144 _098_
*145 _099_
*146 _100_
*147 _101_
*148 _102_
*149 _103_
*150 _104_
*151 _105_
*152 _106_
*153 _107_
*154 _108_
*155 _109_
*156 _110_
*157 _111_
*158 _112_
*159 _113_
*160 _114_
*161 _115_
*162 _116_
*163 _117_
*164 _118_
*165 _119_
*166 _120_
*167 _121_
*168 _122_
*169 _123_
*170 _124_
*171 _125_
*172 _126_
*173 _127_
*174 _128_
*175 _129_
*176 _130_
*177 _131_
*178 _132_
*179 _133_
*180 _134_
*181 _135_
*182 _136_
*183 _137_
*184 _138_
*185 _139_
*186 _140_
*187 _141_
*188 _142_
*189 _143_
*190 _144_
*191 _145_
*192 _146_
*193 _147_
*194 _148_
*195 _149_
*196 _150_
*197 _151_
*198 _152_
*199 _153_
*200 _154_
*201 _155_
*202 _156_
*203 _157_
*204 _158_
*205 _159_
*206 _160_
*207 _161_
*208 _162_
*209 _163_
*210 _164_
*211 _165_
*212 _166_
*213 _167_
*214 _168_
*215 _169_
*216 _170_
*217 _171_
*218 _172_
*219 _173_
*220 _174_
*221 _175_
*222 _176_
*223 _177_
*224 _178_
*225 _179_
*226 _180_
*227 _181_
*228 _182_
*229 _183_
*230 _184_
*231 _185_
*232 _186_
*233 _187_
*234 _188_
*235 _189_
*236 _190_
*237 _191_
*238 _192_
*239 _193_
*240 _194_
*241 _195_
*242 _196_
*243 _197_
*244 _198_
*245 _199_
*246 _200_
*247 _201_
*248 _202_
*249 _203_
*250 _204_
*251 _205_
*252 _206_
*253 _207_
*254 _208_
*255 _209_
*256 _210_
*257 _211_
*258 _212_
*259 _213_
*260 _214_
*261 _215_
*262 _216_
*263 _217_
*264 _218_
*265 _219_
*266 _220_
*267 _221_
*268 _222_
*269 _223_
*270 _224_
*271 _225_
*272 _226_
*273 _227_
*274 _228_
*275 _229_
*276 _230_
*277 _231_
*278 _232_
*279 _233_
*280 _234_
*281 _235_
*282 _236_
*283 _237_
*284 _238_
*285 _239_
*286 _240_
*287 _241_
*288 _242_
*289 _243_
*290 _244_
*291 _245_
*292 _246_
*293 _247_
*294 _248_
*295 _249_
*296 _250_
*297 _251_
*298 _252_
*299 _253_
*300 _254_
*301 _255_
*302 _256_
*303 _257_
*304 _258_
*305 _259_
*306 _260_
*307 _261_
*308 _262_
*309 _263_
*310 _264_
*311 _265_
*312 _266_
*313 _267_
*314 _268_
*315 _269_
*316 _270_
*317 _271_
*318 _272_
*319 _273_
*320 _274_
*321 _275_
*322 _276_
*323 _277_
*324 _278_
*325 _279_
*326 _280_
*327 _281_
*328 _282_
*329 _283_
*330 _284_
*331 _285_
*332 _286_
*333 _287_
*334 _288_
*335 clknet_0_clk
*336 clknet_3_0__leaf_clk
*337 clknet_3_1__leaf_clk
*338 clknet_3_2__leaf_clk
*339 clknet_3_3__leaf_clk
*340 clknet_3_4__leaf_clk
*341 clknet_3_5__leaf_clk
*342 clknet_3_6__leaf_clk
*343 clknet_3_7__leaf_clk
*344 net1
*345 net10
*346 net100
*347 net101
*348 net102
*349 net103
*350 net104
*351 net105
*352 net106
*353 net107
*354 net108
*355 net109
*356 net11
*357 net110
*358 net111
*359 net112
*360 net113
*361 net114
*362 net115
*363 net116
*364 net117
*365 net118
*366 net119
*367 net12
*368 net120
*369 net121
*370 net122
*371 net123
*372 net124
*373 net125
*374 net126
*375 net127
*376 net128
*377 net129
*378 net13
*379 net130
*380 net131
*381 net14
*382 net15
*383 net16
*384 net17
*385 net18
*386 net19
*387 net2
*388 net20
*389 net21
*390 net3
*391 net37
*392 net38
*393 net39
*394 net4
*395 net40
*396 net41
*397 net42
*398 net43
*399 net44
*400 net45
*401 net46
*402 net47
*403 net48
*404 net49
*405 net5
*406 net50
*407 net51
*408 net52
*409 net53
*410 net54
*411 net55
*412 net56
*413 net57
*414 net58
*415 net59
*416 net6
*417 net60
*418 net61
*419 net62
*420 net63
*421 net64
*422 net65
*423 net66
*424 net67
*425 net68
*426 net69
*427 net7
*428 net70
*429 net71
*430 net72
*431 net73
*432 net74
*433 net75
*434 net76
*435 net77
*436 net78
*437 net79
*438 net8
*439 net80
*440 net81
*441 net82
*442 net83
*443 net84
*444 net85
*445 net86
*446 net87
*447 net88
*448 net89
*449 net9
*450 net90
*451 net91
*452 net92
*453 net93
*454 net94
*455 net95
*456 net96
*457 net97
*458 net98
*459 net99
*460 serdes_inst\.data_10b\[0\]
*461 serdes_inst\.data_10b\[1\]
*462 serdes_inst\.data_10b\[2\]
*463 serdes_inst\.data_10b\[3\]
*464 serdes_inst\.data_10b\[4\]
*465 serdes_inst\.data_10b\[5\]
*466 serdes_inst\.data_10b\[6\]
*467 serdes_inst\.data_10b\[7\]
*468 serdes_inst\.data_10b\[8\]
*469 serdes_inst\.data_10b\[9\]
*470 serdes_inst\.data_10b_encoded\[0\]
*471 serdes_inst\.data_10b_encoded\[1\]
*472 serdes_inst\.data_10b_encoded\[2\]
*473 serdes_inst\.data_10b_encoded\[3\]
*474 serdes_inst\.data_10b_encoded\[4\]
*475 serdes_inst\.data_10b_encoded\[5\]
*476 serdes_inst\.data_10b_encoded\[6\]
*477 serdes_inst\.data_10b_encoded\[7\]
*478 serdes_inst\.data_10b_encoded\[8\]
*479 serdes_inst\.data_10b_encoded\[9\]
*480 serdes_inst\.data_10b_latched\[0\]
*481 serdes_inst\.data_10b_latched\[1\]
*482 serdes_inst\.data_10b_latched\[2\]
*483 serdes_inst\.data_10b_latched\[3\]
*484 serdes_inst\.data_10b_latched\[4\]
*485 serdes_inst\.data_10b_latched\[5\]
*486 serdes_inst\.data_10b_latched\[6\]
*487 serdes_inst\.data_10b_latched\[7\]
*488 serdes_inst\.data_10b_latched\[8\]
*489 serdes_inst\.data_10b_latched\[9\]
*490 serdes_inst\.data_10b_latched_d\[0\]
*491 serdes_inst\.data_10b_latched_d\[1\]
*492 serdes_inst\.data_10b_latched_d\[2\]
*493 serdes_inst\.data_10b_latched_d\[3\]
*494 serdes_inst\.data_10b_latched_d\[4\]
*495 serdes_inst\.data_10b_latched_d\[5\]
*496 serdes_inst\.data_10b_latched_d\[6\]
*497 serdes_inst\.data_10b_latched_d\[7\]
*498 serdes_inst\.data_10b_latched_d\[8\]
*499 serdes_inst\.data_10b_latched_d\[9\]
*500 serdes_inst\.data_8b_decoded\[0\]
*501 serdes_inst\.data_8b_decoded\[1\]
*502 serdes_inst\.data_8b_decoded\[2\]
*503 serdes_inst\.data_8b_decoded\[3\]
*504 serdes_inst\.data_8b_decoded\[4\]
*505 serdes_inst\.data_8b_decoded\[5\]
*506 serdes_inst\.data_8b_decoded\[6\]
*507 serdes_inst\.data_8b_decoded\[7\]
*508 serdes_inst\.data_8b_latched\[0\]
*509 serdes_inst\.data_8b_latched\[1\]
*510 serdes_inst\.data_8b_latched\[2\]
*511 serdes_inst\.data_8b_latched\[3\]
*512 serdes_inst\.data_8b_latched\[4\]
*513 serdes_inst\.data_8b_latched\[5\]
*514 serdes_inst\.data_8b_latched\[6\]
*515 serdes_inst\.data_8b_latched\[7\]
*516 serdes_inst\.decoder_inst_d\.temp_3b\[0\]
*517 serdes_inst\.decoder_inst_d\.temp_3b\[1\]
*518 serdes_inst\.decoder_inst_d\.temp_3b\[2\]
*519 serdes_inst\.decoder_inst_d\.temp_5b\[0\]
*520 serdes_inst\.decoder_inst_d\.temp_5b\[1\]
*521 serdes_inst\.decoder_inst_d\.temp_5b\[2\]
*522 serdes_inst\.decoder_inst_d\.temp_5b\[3\]
*523 serdes_inst\.decoder_inst_d\.temp_5b\[4\]
*524 serdes_inst\.encoder_inst\.temp_4b\[0\]
*525 serdes_inst\.encoder_inst\.temp_4b\[1\]
*526 serdes_inst\.encoder_inst\.temp_4b\[2\]
*527 serdes_inst\.encoder_inst\.temp_4b\[3\]
*528 serdes_inst\.encoder_inst\.temp_6b\[0\]
*529 serdes_inst\.encoder_inst\.temp_6b\[1\]
*530 serdes_inst\.encoder_inst\.temp_6b\[2\]
*531 serdes_inst\.encoder_inst\.temp_6b\[3\]
*532 serdes_inst\.encoder_inst\.temp_6b\[4\]
*533 serdes_inst\.encoder_inst\.temp_6b\[5\]
*534 serdes_inst\.piso_inst\.ser_out
*535 serdes_inst\.piso_inst\.shift_reg\[0\]
*536 serdes_inst\.piso_inst\.shift_reg\[1\]
*537 serdes_inst\.piso_inst\.shift_reg\[2\]
*538 serdes_inst\.piso_inst\.shift_reg\[3\]
*539 serdes_inst\.piso_inst\.shift_reg\[4\]
*540 serdes_inst\.piso_inst\.shift_reg\[5\]
*541 serdes_inst\.piso_inst\.shift_reg\[6\]
*542 serdes_inst\.piso_inst\.shift_reg\[7\]
*543 serdes_inst\.piso_inst\.shift_reg\[8\]
*544 serdes_inst\.piso_inst\.shift_reg\[9\]
*545 serdes_inst\.sipo_inst_d\.shift_reg\[0\]
*546 serdes_inst\.sipo_inst_d\.shift_reg\[1\]
*547 serdes_inst\.sipo_inst_d\.shift_reg\[2\]
*548 serdes_inst\.sipo_inst_d\.shift_reg\[3\]
*549 serdes_inst\.sipo_inst_d\.shift_reg\[4\]
*550 serdes_inst\.sipo_inst_d\.shift_reg\[5\]
*551 serdes_inst\.sipo_inst_d\.shift_reg\[6\]
*552 serdes_inst\.sipo_inst_d\.shift_reg\[7\]
*553 serdes_inst\.sipo_inst_d\.shift_reg\[8\]
*554 serdes_inst\.sipo_inst_d\.shift_reg\[9\]
*555 FILLER_0_0_109
*556 FILLER_0_0_113
*557 FILLER_0_0_125
*558 FILLER_0_0_137
*559 FILLER_0_0_141
*560 FILLER_0_0_15
*561 FILLER_0_0_153
*562 FILLER_0_0_165
*563 FILLER_0_0_169
*564 FILLER_0_0_181
*565 FILLER_0_0_193
*566 FILLER_0_0_197
*567 FILLER_0_0_209
*568 FILLER_0_0_221
*569 FILLER_0_0_225
*570 FILLER_0_0_237
*571 FILLER_0_0_249
*572 FILLER_0_0_253
*573 FILLER_0_0_265
*574 FILLER_0_0_27
*575 FILLER_0_0_277
*576 FILLER_0_0_281
*577 FILLER_0_0_29
*578 FILLER_0_0_293
*579 FILLER_0_0_3
*580 FILLER_0_0_305
*581 FILLER_0_0_309
*582 FILLER_0_0_321
*583 FILLER_0_0_333
*584 FILLER_0_0_41
*585 FILLER_0_0_53
*586 FILLER_0_0_57
*587 FILLER_0_0_69
*588 FILLER_0_0_81
*589 FILLER_0_0_85
*590 FILLER_0_0_97
*591 FILLER_0_10_109
*592 FILLER_0_10_121
*593 FILLER_0_10_133
*594 FILLER_0_10_139
*595 FILLER_0_10_141
*596 FILLER_0_10_15
*597 FILLER_0_10_153
*598 FILLER_0_10_165
*599 FILLER_0_10_177
*600 FILLER_0_10_189
*601 FILLER_0_10_195
*602 FILLER_0_10_197
*603 FILLER_0_10_209
*604 FILLER_0_10_221
*605 FILLER_0_10_233
*606 FILLER_0_10_245
*607 FILLER_0_10_251
*608 FILLER_0_10_253
*609 FILLER_0_10_265
*610 FILLER_0_10_27
*611 FILLER_0_10_277
*612 FILLER_0_10_289
*613 FILLER_0_10_29
*614 FILLER_0_10_3
*615 FILLER_0_10_301
*616 FILLER_0_10_307
*617 FILLER_0_10_309
*618 FILLER_0_10_321
*619 FILLER_0_10_333
*620 FILLER_0_10_41
*621 FILLER_0_10_53
*622 FILLER_0_10_65
*623 FILLER_0_10_77
*624 FILLER_0_10_83
*625 FILLER_0_10_85
*626 FILLER_0_10_97
*627 FILLER_0_11_105
*628 FILLER_0_11_111
*629 FILLER_0_11_113
*630 FILLER_0_11_125
*631 FILLER_0_11_137
*632 FILLER_0_11_149
*633 FILLER_0_11_15
*634 FILLER_0_11_161
*635 FILLER_0_11_167
*636 FILLER_0_11_169
*637 FILLER_0_11_181
*638 FILLER_0_11_193
*639 FILLER_0_11_205
*640 FILLER_0_11_217
*641 FILLER_0_11_223
*642 FILLER_0_11_225
*643 FILLER_0_11_237
*644 FILLER_0_11_249
*645 FILLER_0_11_261
*646 FILLER_0_11_27
*647 FILLER_0_11_273
*648 FILLER_0_11_279
*649 FILLER_0_11_281
*650 FILLER_0_11_293
*651 FILLER_0_11_3
*652 FILLER_0_11_305
*653 FILLER_0_11_317
*654 FILLER_0_11_329
*655 FILLER_0_11_39
*656 FILLER_0_11_51
*657 FILLER_0_11_55
*658 FILLER_0_11_57
*659 FILLER_0_11_69
*660 FILLER_0_11_81
*661 FILLER_0_11_93
*662 FILLER_0_12_109
*663 FILLER_0_12_121
*664 FILLER_0_12_133
*665 FILLER_0_12_139
*666 FILLER_0_12_141
*667 FILLER_0_12_15
*668 FILLER_0_12_153
*669 FILLER_0_12_165
*670 FILLER_0_12_177
*671 FILLER_0_12_189
*672 FILLER_0_12_195
*673 FILLER_0_12_197
*674 FILLER_0_12_209
*675 FILLER_0_12_221
*676 FILLER_0_12_233
*677 FILLER_0_12_245
*678 FILLER_0_12_251
*679 FILLER_0_12_253
*680 FILLER_0_12_265
*681 FILLER_0_12_27
*682 FILLER_0_12_277
*683 FILLER_0_12_289
*684 FILLER_0_12_29
*685 FILLER_0_12_3
*686 FILLER_0_12_301
*687 FILLER_0_12_307
*688 FILLER_0_12_309
*689 FILLER_0_12_321
*690 FILLER_0_12_333
*691 FILLER_0_12_41
*692 FILLER_0_12_53
*693 FILLER_0_12_65
*694 FILLER_0_12_77
*695 FILLER_0_12_83
*696 FILLER_0_12_85
*697 FILLER_0_12_97
*698 FILLER_0_13_105
*699 FILLER_0_13_111
*700 FILLER_0_13_113
*701 FILLER_0_13_125
*702 FILLER_0_13_137
*703 FILLER_0_13_149
*704 FILLER_0_13_15
*705 FILLER_0_13_161
*706 FILLER_0_13_167
*707 FILLER_0_13_169
*708 FILLER_0_13_181
*709 FILLER_0_13_193
*710 FILLER_0_13_205
*711 FILLER_0_13_217
*712 FILLER_0_13_223
*713 FILLER_0_13_225
*714 FILLER_0_13_237
*715 FILLER_0_13_249
*716 FILLER_0_13_261
*717 FILLER_0_13_27
*718 FILLER_0_13_273
*719 FILLER_0_13_279
*720 FILLER_0_13_281
*721 FILLER_0_13_293
*722 FILLER_0_13_3
*723 FILLER_0_13_305
*724 FILLER_0_13_317
*725 FILLER_0_13_329
*726 FILLER_0_13_39
*727 FILLER_0_13_51
*728 FILLER_0_13_55
*729 FILLER_0_13_57
*730 FILLER_0_13_69
*731 FILLER_0_13_81
*732 FILLER_0_13_93
*733 FILLER_0_14_109
*734 FILLER_0_14_121
*735 FILLER_0_14_133
*736 FILLER_0_14_139
*737 FILLER_0_14_141
*738 FILLER_0_14_15
*739 FILLER_0_14_153
*740 FILLER_0_14_165
*741 FILLER_0_14_177
*742 FILLER_0_14_189
*743 FILLER_0_14_195
*744 FILLER_0_14_197
*745 FILLER_0_14_209
*746 FILLER_0_14_221
*747 FILLER_0_14_233
*748 FILLER_0_14_245
*749 FILLER_0_14_251
*750 FILLER_0_14_253
*751 FILLER_0_14_265
*752 FILLER_0_14_27
*753 FILLER_0_14_277
*754 FILLER_0_14_289
*755 FILLER_0_14_29
*756 FILLER_0_14_3
*757 FILLER_0_14_301
*758 FILLER_0_14_307
*759 FILLER_0_14_309
*760 FILLER_0_14_321
*761 FILLER_0_14_333
*762 FILLER_0_14_41
*763 FILLER_0_14_53
*764 FILLER_0_14_65
*765 FILLER_0_14_77
*766 FILLER_0_14_83
*767 FILLER_0_14_85
*768 FILLER_0_14_97
*769 FILLER_0_15_105
*770 FILLER_0_15_111
*771 FILLER_0_15_113
*772 FILLER_0_15_125
*773 FILLER_0_15_137
*774 FILLER_0_15_149
*775 FILLER_0_15_15
*776 FILLER_0_15_161
*777 FILLER_0_15_167
*778 FILLER_0_15_169
*779 FILLER_0_15_181
*780 FILLER_0_15_193
*781 FILLER_0_15_205
*782 FILLER_0_15_217
*783 FILLER_0_15_223
*784 FILLER_0_15_225
*785 FILLER_0_15_237
*786 FILLER_0_15_249
*787 FILLER_0_15_261
*788 FILLER_0_15_27
*789 FILLER_0_15_273
*790 FILLER_0_15_279
*791 FILLER_0_15_281
*792 FILLER_0_15_293
*793 FILLER_0_15_3
*794 FILLER_0_15_305
*795 FILLER_0_15_317
*796 FILLER_0_15_329
*797 FILLER_0_15_39
*798 FILLER_0_15_51
*799 FILLER_0_15_55
*800 FILLER_0_15_57
*801 FILLER_0_15_69
*802 FILLER_0_15_81
*803 FILLER_0_15_93
*804 FILLER_0_16_109
*805 FILLER_0_16_121
*806 FILLER_0_16_133
*807 FILLER_0_16_139
*808 FILLER_0_16_141
*809 FILLER_0_16_15
*810 FILLER_0_16_153
*811 FILLER_0_16_165
*812 FILLER_0_16_177
*813 FILLER_0_16_189
*814 FILLER_0_16_195
*815 FILLER_0_16_197
*816 FILLER_0_16_209
*817 FILLER_0_16_221
*818 FILLER_0_16_233
*819 FILLER_0_16_245
*820 FILLER_0_16_251
*821 FILLER_0_16_253
*822 FILLER_0_16_265
*823 FILLER_0_16_27
*824 FILLER_0_16_277
*825 FILLER_0_16_289
*826 FILLER_0_16_29
*827 FILLER_0_16_3
*828 FILLER_0_16_301
*829 FILLER_0_16_307
*830 FILLER_0_16_309
*831 FILLER_0_16_321
*832 FILLER_0_16_333
*833 FILLER_0_16_41
*834 FILLER_0_16_53
*835 FILLER_0_16_65
*836 FILLER_0_16_77
*837 FILLER_0_16_83
*838 FILLER_0_16_85
*839 FILLER_0_16_97
*840 FILLER_0_17_105
*841 FILLER_0_17_111
*842 FILLER_0_17_113
*843 FILLER_0_17_125
*844 FILLER_0_17_137
*845 FILLER_0_17_15
*846 FILLER_0_17_151
*847 FILLER_0_17_163
*848 FILLER_0_17_167
*849 FILLER_0_17_169
*850 FILLER_0_17_181
*851 FILLER_0_17_193
*852 FILLER_0_17_205
*853 FILLER_0_17_217
*854 FILLER_0_17_223
*855 FILLER_0_17_225
*856 FILLER_0_17_237
*857 FILLER_0_17_249
*858 FILLER_0_17_261
*859 FILLER_0_17_27
*860 FILLER_0_17_273
*861 FILLER_0_17_279
*862 FILLER_0_17_281
*863 FILLER_0_17_293
*864 FILLER_0_17_3
*865 FILLER_0_17_305
*866 FILLER_0_17_317
*867 FILLER_0_17_329
*868 FILLER_0_17_39
*869 FILLER_0_17_51
*870 FILLER_0_17_55
*871 FILLER_0_17_57
*872 FILLER_0_17_69
*873 FILLER_0_17_81
*874 FILLER_0_17_93
*875 FILLER_0_18_109
*876 FILLER_0_18_120
*877 FILLER_0_18_15
*878 FILLER_0_18_157
*879 FILLER_0_18_169
*880 FILLER_0_18_181
*881 FILLER_0_18_193
*882 FILLER_0_18_197
*883 FILLER_0_18_209
*884 FILLER_0_18_221
*885 FILLER_0_18_233
*886 FILLER_0_18_245
*887 FILLER_0_18_251
*888 FILLER_0_18_253
*889 FILLER_0_18_265
*890 FILLER_0_18_27
*891 FILLER_0_18_277
*892 FILLER_0_18_288
*893 FILLER_0_18_29
*894 FILLER_0_18_3
*895 FILLER_0_18_300
*896 FILLER_0_18_309
*897 FILLER_0_18_321
*898 FILLER_0_18_333
*899 FILLER_0_18_41
*900 FILLER_0_18_49
*901 FILLER_0_18_59
*902 FILLER_0_18_67
*903 FILLER_0_18_82
*904 FILLER_0_18_85
*905 FILLER_0_18_93
*906 FILLER_0_19_109
*907 FILLER_0_19_15
*908 FILLER_0_19_172
*909 FILLER_0_19_184
*910 FILLER_0_19_207
*911 FILLER_0_19_21
*912 FILLER_0_19_213
*913 FILLER_0_19_221
*914 FILLER_0_19_225
*915 FILLER_0_19_235
*916 FILLER_0_19_245
*917 FILLER_0_19_257
*918 FILLER_0_19_261
*919 FILLER_0_19_277
*920 FILLER_0_19_29
*921 FILLER_0_19_3
*922 FILLER_0_19_305
*923 FILLER_0_19_317
*924 FILLER_0_19_329
*925 FILLER_0_19_39
*926 FILLER_0_19_73
*927 FILLER_0_1_105
*928 FILLER_0_1_111
*929 FILLER_0_1_113
*930 FILLER_0_1_125
*931 FILLER_0_1_137
*932 FILLER_0_1_149
*933 FILLER_0_1_15
*934 FILLER_0_1_161
*935 FILLER_0_1_167
*936 FILLER_0_1_169
*937 FILLER_0_1_181
*938 FILLER_0_1_193
*939 FILLER_0_1_205
*940 FILLER_0_1_217
*941 FILLER_0_1_223
*942 FILLER_0_1_225
*943 FILLER_0_1_237
*944 FILLER_0_1_249
*945 FILLER_0_1_261
*946 FILLER_0_1_27
*947 FILLER_0_1_273
*948 FILLER_0_1_279
*949 FILLER_0_1_281
*950 FILLER_0_1_293
*951 FILLER_0_1_3
*952 FILLER_0_1_305
*953 FILLER_0_1_317
*954 FILLER_0_1_329
*955 FILLER_0_1_39
*956 FILLER_0_1_51
*957 FILLER_0_1_55
*958 FILLER_0_1_57
*959 FILLER_0_1_69
*960 FILLER_0_1_81
*961 FILLER_0_1_93
*962 FILLER_0_20_11
*963 FILLER_0_20_141
*964 FILLER_0_20_175
*965 FILLER_0_20_187
*966 FILLER_0_20_197
*967 FILLER_0_20_207
*968 FILLER_0_20_251
*969 FILLER_0_20_3
*970 FILLER_0_20_304
*971 FILLER_0_20_329
*972 FILLER_0_20_38
*973 FILLER_0_20_85
*974 FILLER_0_20_95
*975 FILLER_0_20_99
*976 FILLER_0_21_111
*977 FILLER_0_21_113
*978 FILLER_0_21_128
*979 FILLER_0_21_134
*980 FILLER_0_21_185
*981 FILLER_0_21_189
*982 FILLER_0_21_210
*983 FILLER_0_21_222
*984 FILLER_0_21_245
*985 FILLER_0_21_275
*986 FILLER_0_21_279
*987 FILLER_0_21_3
*988 FILLER_0_21_305
*989 FILLER_0_21_334
*990 FILLER_0_21_38
*991 FILLER_0_21_57
*992 FILLER_0_21_61
*993 FILLER_0_21_78
*994 FILLER_0_21_82
*995 FILLER_0_22_11
*996 FILLER_0_22_111
*997 FILLER_0_22_148
*998 FILLER_0_22_182
*999 FILLER_0_22_186
*1000 FILLER_0_22_197
*1001 FILLER_0_22_249
*1002 FILLER_0_22_256
*1003 FILLER_0_22_269
*1004 FILLER_0_22_3
*1005 FILLER_0_22_306
*1006 FILLER_0_22_329
*1007 FILLER_0_22_78
*1008 FILLER_0_22_85
*1009 FILLER_0_23_111
*1010 FILLER_0_23_113
*1011 FILLER_0_23_15
*1012 FILLER_0_23_150
*1013 FILLER_0_23_172
*1014 FILLER_0_23_184
*1015 FILLER_0_23_195
*1016 FILLER_0_23_228
*1017 FILLER_0_23_245
*1018 FILLER_0_23_278
*1019 FILLER_0_23_297
*1020 FILLER_0_23_3
*1021 FILLER_0_23_68
*1022 FILLER_0_23_77
*1023 FILLER_0_23_99
*1024 FILLER_0_24_126
*1025 FILLER_0_24_136
*1026 FILLER_0_24_141
*1027 FILLER_0_24_15
*1028 FILLER_0_24_179
*1029 FILLER_0_24_19
*1030 FILLER_0_24_191
*1031 FILLER_0_24_195
*1032 FILLER_0_24_197
*1033 FILLER_0_24_209
*1034 FILLER_0_24_23
*1035 FILLER_0_24_250
*1036 FILLER_0_24_27
*1037 FILLER_0_24_3
*1038 FILLER_0_24_306
*1039 FILLER_0_24_325
*1040 FILLER_0_24_46
*1041 FILLER_0_24_76
*1042 FILLER_0_24_85
*1043 FILLER_0_24_89
*1044 FILLER_0_25_108
*1045 FILLER_0_25_113
*1046 FILLER_0_25_117
*1047 FILLER_0_25_141
*1048 FILLER_0_25_167
*1049 FILLER_0_25_205
*1050 FILLER_0_25_297
*1051 FILLER_0_25_3
*1052 FILLER_0_25_45
*1053 FILLER_0_25_52
*1054 FILLER_0_25_57
*1055 FILLER_0_25_65
*1056 FILLER_0_25_82
*1057 FILLER_0_25_94
*1058 FILLER_0_26_120
*1059 FILLER_0_26_125
*1060 FILLER_0_26_136
*1061 FILLER_0_26_141
*1062 FILLER_0_26_149
*1063 FILLER_0_26_15
*1064 FILLER_0_26_170
*1065 FILLER_0_26_182
*1066 FILLER_0_26_190
*1067 FILLER_0_26_195
*1068 FILLER_0_26_217
*1069 FILLER_0_26_24
*1070 FILLER_0_26_253
*1071 FILLER_0_26_286
*1072 FILLER_0_26_290
*1073 FILLER_0_26_3
*1074 FILLER_0_26_306
*1075 FILLER_0_26_334
*1076 FILLER_0_26_38
*1077 FILLER_0_26_50
*1078 FILLER_0_26_72
*1079 FILLER_0_26_80
*1080 FILLER_0_26_85
*1081 FILLER_0_27_100
*1082 FILLER_0_27_113
*1083 FILLER_0_27_125
*1084 FILLER_0_27_137
*1085 FILLER_0_27_15
*1086 FILLER_0_27_155
*1087 FILLER_0_27_167
*1088 FILLER_0_27_169
*1089 FILLER_0_27_181
*1090 FILLER_0_27_215
*1091 FILLER_0_27_225
*1092 FILLER_0_27_252
*1093 FILLER_0_27_276
*1094 FILLER_0_27_289
*1095 FILLER_0_27_293
*1096 FILLER_0_27_3
*1097 FILLER_0_27_331
*1098 FILLER_0_27_36
*1099 FILLER_0_27_45
*1100 FILLER_0_27_53
*1101 FILLER_0_27_57
*1102 FILLER_0_27_65
*1103 FILLER_0_27_88
*1104 FILLER_0_28_105
*1105 FILLER_0_28_117
*1106 FILLER_0_28_129
*1107 FILLER_0_28_137
*1108 FILLER_0_28_141
*1109 FILLER_0_28_15
*1110 FILLER_0_28_164
*1111 FILLER_0_28_176
*1112 FILLER_0_28_197
*1113 FILLER_0_28_21
*1114 FILLER_0_28_228
*1115 FILLER_0_28_249
*1116 FILLER_0_28_261
*1117 FILLER_0_28_294
*1118 FILLER_0_28_3
*1119 FILLER_0_28_304
*1120 FILLER_0_28_309
*1121 FILLER_0_28_32
*1122 FILLER_0_28_332
*1123 FILLER_0_28_45
*1124 FILLER_0_28_57
*1125 FILLER_0_28_63
*1126 FILLER_0_28_72
*1127 FILLER_0_28_82
*1128 FILLER_0_28_93
*1129 FILLER_0_29_106
*1130 FILLER_0_29_113
*1131 FILLER_0_29_15
*1132 FILLER_0_29_167
*1133 FILLER_0_29_169
*1134 FILLER_0_29_19
*1135 FILLER_0_29_250
*1136 FILLER_0_29_274
*1137 FILLER_0_29_281
*1138 FILLER_0_29_3
*1139 FILLER_0_29_300
*1140 FILLER_0_29_326
*1141 FILLER_0_29_45
*1142 FILLER_0_29_53
*1143 FILLER_0_29_57
*1144 FILLER_0_29_65
*1145 FILLER_0_29_81
*1146 FILLER_0_29_97
*1147 FILLER_0_2_109
*1148 FILLER_0_2_121
*1149 FILLER_0_2_133
*1150 FILLER_0_2_139
*1151 FILLER_0_2_141
*1152 FILLER_0_2_15
*1153 FILLER_0_2_153
*1154 FILLER_0_2_165
*1155 FILLER_0_2_177
*1156 FILLER_0_2_189
*1157 FILLER_0_2_195
*1158 FILLER_0_2_197
*1159 FILLER_0_2_209
*1160 FILLER_0_2_221
*1161 FILLER_0_2_233
*1162 FILLER_0_2_245
*1163 FILLER_0_2_251
*1164 FILLER_0_2_253
*1165 FILLER_0_2_265
*1166 FILLER_0_2_27
*1167 FILLER_0_2_277
*1168 FILLER_0_2_289
*1169 FILLER_0_2_29
*1170 FILLER_0_2_3
*1171 FILLER_0_2_301
*1172 FILLER_0_2_307
*1173 FILLER_0_2_309
*1174 FILLER_0_2_321
*1175 FILLER_0_2_333
*1176 FILLER_0_2_41
*1177 FILLER_0_2_53
*1178 FILLER_0_2_65
*1179 FILLER_0_2_77
*1180 FILLER_0_2_83
*1181 FILLER_0_2_85
*1182 FILLER_0_2_97
*1183 FILLER_0_30_102
*1184 FILLER_0_30_112
*1185 FILLER_0_30_121
*1186 FILLER_0_30_129
*1187 FILLER_0_30_134
*1188 FILLER_0_30_149
*1189 FILLER_0_30_15
*1190 FILLER_0_30_171
*1191 FILLER_0_30_183
*1192 FILLER_0_30_192
*1193 FILLER_0_30_206
*1194 FILLER_0_30_23
*1195 FILLER_0_30_243
*1196 FILLER_0_30_251
*1197 FILLER_0_30_253
*1198 FILLER_0_30_261
*1199 FILLER_0_30_285
*1200 FILLER_0_30_293
*1201 FILLER_0_30_3
*1202 FILLER_0_30_307
*1203 FILLER_0_30_333
*1204 FILLER_0_30_39
*1205 FILLER_0_30_51
*1206 FILLER_0_30_78
*1207 FILLER_0_30_82
*1208 FILLER_0_30_93
*1209 FILLER_0_31_106
*1210 FILLER_0_31_133
*1211 FILLER_0_31_15
*1212 FILLER_0_31_151
*1213 FILLER_0_31_183
*1214 FILLER_0_31_207
*1215 FILLER_0_31_221
*1216 FILLER_0_31_237
*1217 FILLER_0_31_249
*1218 FILLER_0_31_257
*1219 FILLER_0_31_267
*1220 FILLER_0_31_279
*1221 FILLER_0_31_294
*1222 FILLER_0_31_3
*1223 FILLER_0_31_310
*1224 FILLER_0_31_316
*1225 FILLER_0_31_324
*1226 FILLER_0_31_331
*1227 FILLER_0_31_45
*1228 FILLER_0_31_53
*1229 FILLER_0_31_57
*1230 FILLER_0_31_89
*1231 FILLER_0_31_97
*1232 FILLER_0_32_126
*1233 FILLER_0_32_137
*1234 FILLER_0_32_15
*1235 FILLER_0_32_157
*1236 FILLER_0_32_175
*1237 FILLER_0_32_187
*1238 FILLER_0_32_195
*1239 FILLER_0_32_219
*1240 FILLER_0_32_23
*1241 FILLER_0_32_242
*1242 FILLER_0_32_250
*1243 FILLER_0_32_286
*1244 FILLER_0_32_3
*1245 FILLER_0_32_307
*1246 FILLER_0_32_319
*1247 FILLER_0_32_331
*1248 FILLER_0_32_39
*1249 FILLER_0_32_51
*1250 FILLER_0_32_63
*1251 FILLER_0_32_80
*1252 FILLER_0_32_85
*1253 FILLER_0_32_97
*1254 FILLER_0_33_109
*1255 FILLER_0_33_113
*1256 FILLER_0_33_121
*1257 FILLER_0_33_127
*1258 FILLER_0_33_15
*1259 FILLER_0_33_165
*1260 FILLER_0_33_178
*1261 FILLER_0_33_182
*1262 FILLER_0_33_223
*1263 FILLER_0_33_252
*1264 FILLER_0_33_260
*1265 FILLER_0_33_289
*1266 FILLER_0_33_3
*1267 FILLER_0_33_300
*1268 FILLER_0_33_325
*1269 FILLER_0_33_333
*1270 FILLER_0_33_39
*1271 FILLER_0_33_51
*1272 FILLER_0_33_55
*1273 FILLER_0_33_57
*1274 FILLER_0_33_61
*1275 FILLER_0_33_86
*1276 FILLER_0_34_106
*1277 FILLER_0_34_134
*1278 FILLER_0_34_144
*1279 FILLER_0_34_15
*1280 FILLER_0_34_155
*1281 FILLER_0_34_161
*1282 FILLER_0_34_195
*1283 FILLER_0_34_197
*1284 FILLER_0_34_203
*1285 FILLER_0_34_212
*1286 FILLER_0_34_225
*1287 FILLER_0_34_239
*1288 FILLER_0_34_251
*1289 FILLER_0_34_27
*1290 FILLER_0_34_280
*1291 FILLER_0_34_288
*1292 FILLER_0_34_293
*1293 FILLER_0_34_3
*1294 FILLER_0_34_305
*1295 FILLER_0_34_309
*1296 FILLER_0_34_324
*1297 FILLER_0_34_332
*1298 FILLER_0_34_93
*1299 FILLER_0_35_119
*1300 FILLER_0_35_127
*1301 FILLER_0_35_15
*1302 FILLER_0_35_152
*1303 FILLER_0_35_161
*1304 FILLER_0_35_169
*1305 FILLER_0_35_178
*1306 FILLER_0_35_217
*1307 FILLER_0_35_223
*1308 FILLER_0_35_245
*1309 FILLER_0_35_257
*1310 FILLER_0_35_269
*1311 FILLER_0_35_27
*1312 FILLER_0_35_279
*1313 FILLER_0_35_285
*1314 FILLER_0_35_293
*1315 FILLER_0_35_3
*1316 FILLER_0_35_326
*1317 FILLER_0_35_334
*1318 FILLER_0_35_39
*1319 FILLER_0_35_51
*1320 FILLER_0_35_90
*1321 FILLER_0_36_130
*1322 FILLER_0_36_141
*1323 FILLER_0_36_15
*1324 FILLER_0_36_152
*1325 FILLER_0_36_192
*1326 FILLER_0_36_212
*1327 FILLER_0_36_248
*1328 FILLER_0_36_253
*1329 FILLER_0_36_27
*1330 FILLER_0_36_279
*1331 FILLER_0_36_29
*1332 FILLER_0_36_291
*1333 FILLER_0_36_3
*1334 FILLER_0_36_306
*1335 FILLER_0_36_329
*1336 FILLER_0_36_64
*1337 FILLER_0_36_85
*1338 FILLER_0_36_95
*1339 FILLER_0_37_108
*1340 FILLER_0_37_113
*1341 FILLER_0_37_117
*1342 FILLER_0_37_130
*1343 FILLER_0_37_15
*1344 FILLER_0_37_161
*1345 FILLER_0_37_167
*1346 FILLER_0_37_173
*1347 FILLER_0_37_202
*1348 FILLER_0_37_208
*1349 FILLER_0_37_218
*1350 FILLER_0_37_27
*1351 FILLER_0_37_3
*1352 FILLER_0_37_334
*1353 FILLER_0_37_39
*1354 FILLER_0_37_47
*1355 FILLER_0_37_51
*1356 FILLER_0_37_55
*1357 FILLER_0_37_66
*1358 FILLER_0_37_78
*1359 FILLER_0_38_10
*1360 FILLER_0_38_102
*1361 FILLER_0_38_106
*1362 FILLER_0_38_110
*1363 FILLER_0_38_113
*1364 FILLER_0_38_118
*1365 FILLER_0_38_138
*1366 FILLER_0_38_14
*1367 FILLER_0_38_144
*1368 FILLER_0_38_157
*1369 FILLER_0_38_165
*1370 FILLER_0_38_175
*1371 FILLER_0_38_18
*1372 FILLER_0_38_181
*1373 FILLER_0_38_194
*1374 FILLER_0_38_197
*1375 FILLER_0_38_209
*1376 FILLER_0_38_215
*1377 FILLER_0_38_22
*1378 FILLER_0_38_223
*1379 FILLER_0_38_225
*1380 FILLER_0_38_248
*1381 FILLER_0_38_268
*1382 FILLER_0_38_279
*1383 FILLER_0_38_290
*1384 FILLER_0_38_294
*1385 FILLER_0_38_298
*1386 FILLER_0_38_302
*1387 FILLER_0_38_32
*1388 FILLER_0_38_38
*1389 FILLER_0_38_42
*1390 FILLER_0_38_46
*1391 FILLER_0_38_50
*1392 FILLER_0_38_54
*1393 FILLER_0_38_57
*1394 FILLER_0_38_6
*1395 FILLER_0_38_62
*1396 FILLER_0_38_66
*1397 FILLER_0_38_70
*1398 FILLER_0_38_74
*1399 FILLER_0_38_78
*1400 FILLER_0_38_88
*1401 FILLER_0_38_94
*1402 FILLER_0_38_98
*1403 FILLER_0_3_105
*1404 FILLER_0_3_111
*1405 FILLER_0_3_113
*1406 FILLER_0_3_125
*1407 FILLER_0_3_137
*1408 FILLER_0_3_149
*1409 FILLER_0_3_15
*1410 FILLER_0_3_161
*1411 FILLER_0_3_167
*1412 FILLER_0_3_169
*1413 FILLER_0_3_181
*1414 FILLER_0_3_193
*1415 FILLER_0_3_205
*1416 FILLER_0_3_217
*1417 FILLER_0_3_223
*1418 FILLER_0_3_225
*1419 FILLER_0_3_237
*1420 FILLER_0_3_249
*1421 FILLER_0_3_261
*1422 FILLER_0_3_27
*1423 FILLER_0_3_273
*1424 FILLER_0_3_279
*1425 FILLER_0_3_281
*1426 FILLER_0_3_293
*1427 FILLER_0_3_3
*1428 FILLER_0_3_305
*1429 FILLER_0_3_317
*1430 FILLER_0_3_329
*1431 FILLER_0_3_39
*1432 FILLER_0_3_51
*1433 FILLER_0_3_55
*1434 FILLER_0_3_57
*1435 FILLER_0_3_69
*1436 FILLER_0_3_81
*1437 FILLER_0_3_93
*1438 FILLER_0_4_109
*1439 FILLER_0_4_121
*1440 FILLER_0_4_133
*1441 FILLER_0_4_139
*1442 FILLER_0_4_141
*1443 FILLER_0_4_15
*1444 FILLER_0_4_153
*1445 FILLER_0_4_165
*1446 FILLER_0_4_177
*1447 FILLER_0_4_189
*1448 FILLER_0_4_195
*1449 FILLER_0_4_197
*1450 FILLER_0_4_209
*1451 FILLER_0_4_221
*1452 FILLER_0_4_233
*1453 FILLER_0_4_245
*1454 FILLER_0_4_251
*1455 FILLER_0_4_253
*1456 FILLER_0_4_265
*1457 FILLER_0_4_27
*1458 FILLER_0_4_277
*1459 FILLER_0_4_289
*1460 FILLER_0_4_29
*1461 FILLER_0_4_3
*1462 FILLER_0_4_301
*1463 FILLER_0_4_307
*1464 FILLER_0_4_309
*1465 FILLER_0_4_321
*1466 FILLER_0_4_333
*1467 FILLER_0_4_41
*1468 FILLER_0_4_53
*1469 FILLER_0_4_65
*1470 FILLER_0_4_77
*1471 FILLER_0_4_83
*1472 FILLER_0_4_85
*1473 FILLER_0_4_97
*1474 FILLER_0_5_105
*1475 FILLER_0_5_111
*1476 FILLER_0_5_113
*1477 FILLER_0_5_125
*1478 FILLER_0_5_137
*1479 FILLER_0_5_149
*1480 FILLER_0_5_15
*1481 FILLER_0_5_161
*1482 FILLER_0_5_167
*1483 FILLER_0_5_169
*1484 FILLER_0_5_181
*1485 FILLER_0_5_193
*1486 FILLER_0_5_205
*1487 FILLER_0_5_217
*1488 FILLER_0_5_223
*1489 FILLER_0_5_225
*1490 FILLER_0_5_237
*1491 FILLER_0_5_249
*1492 FILLER_0_5_261
*1493 FILLER_0_5_27
*1494 FILLER_0_5_273
*1495 FILLER_0_5_279
*1496 FILLER_0_5_281
*1497 FILLER_0_5_293
*1498 FILLER_0_5_3
*1499 FILLER_0_5_305
*1500 FILLER_0_5_317
*1501 FILLER_0_5_329
*1502 FILLER_0_5_39
*1503 FILLER_0_5_51
*1504 FILLER_0_5_55
*1505 FILLER_0_5_57
*1506 FILLER_0_5_69
*1507 FILLER_0_5_81
*1508 FILLER_0_5_93
*1509 FILLER_0_6_109
*1510 FILLER_0_6_121
*1511 FILLER_0_6_133
*1512 FILLER_0_6_139
*1513 FILLER_0_6_141
*1514 FILLER_0_6_15
*1515 FILLER_0_6_153
*1516 FILLER_0_6_165
*1517 FILLER_0_6_177
*1518 FILLER_0_6_189
*1519 FILLER_0_6_195
*1520 FILLER_0_6_197
*1521 FILLER_0_6_209
*1522 FILLER_0_6_221
*1523 FILLER_0_6_233
*1524 FILLER_0_6_245
*1525 FILLER_0_6_251
*1526 FILLER_0_6_253
*1527 FILLER_0_6_265
*1528 FILLER_0_6_27
*1529 FILLER_0_6_277
*1530 FILLER_0_6_289
*1531 FILLER_0_6_29
*1532 FILLER_0_6_3
*1533 FILLER_0_6_301
*1534 FILLER_0_6_307
*1535 FILLER_0_6_309
*1536 FILLER_0_6_321