*SPEF "ieee 1481-1999"
*DESIGN "tt_um_mitssdd"
*DATE "15:53:28 Thursday May 23, 2024"
*VENDOR "The OpenROAD Project"
*PROGRAM "OpenROAD"
*VERSION "da0053d7b0014ab9c87ea148875ff6c2a0f9b658"
*DESIGN_FLOW "NAME_SCOPE LOCAL" "PIN_CAP NONE"
*DIVIDER /
*DELIMITER :
*BUS_DELIMITER []
*T_UNIT 1 NS
*C_UNIT 1 PF
*R_UNIT 1 OHM
*L_UNIT 1 HENRY

*NAME_MAP
*3 clk
*4 ena
*5 rst_n
*6 ui_in[0]
*7 ui_in[1]
*8 ui_in[2]
*9 ui_in[3]
*10 ui_in[4]
*11 ui_in[5]
*12 ui_in[6]
*13 ui_in[7]
*14 uio_in[0]
*15 uio_in[1]
*16 uio_in[2]
*17 uio_in[3]
*18 uio_in[4]
*19 uio_in[5]
*20 uio_in[6]
*21 uio_in[7]
*22 net17
*23 net18
*24 net19
*25 net20
*26 net21
*27 net22
*28 net23
*29 net24
*30 net25
*31 net26
*32 net27
*33 net28
*34 net29
*35 net30
*36 net31
*37 net32
*38 uo_out[0]
*39 uo_out[1]
*40 uo_out[2]
*41 uo_out[3]
*42 uo_out[4]
*43 uo_out[5]
*44 uo_out[6]
*45 uo_out[7]
*46 _0000_
*47 _0001_
*48 _0002_
*49 _0003_
*50 _0004_
*51 _0005_
*52 _0006_
*53 _0007_
*54 _0008_
*55 _0010_
*56 _0011_
*57 _0012_
*58 _0013_
*59 _0014_
*60 _0015_
*61 _0016_
*62 _0017_
*63 _0019_
*64 _0020_
*65 _0021_
*66 _0022_
*67 _0023_
*68 _0024_
*69 _0025_
*70 _0026_
*71 _0028_
*72 _0029_
*73 _0030_
*74 _0031_
*75 _0032_
*76 _0033_
*77 _0034_
*78 _0035_
*79 _0037_
*80 _0038_
*81 _0039_
*82 _0040_
*83 _0041_
*84 _0042_
*85 _0043_
*86 _0044_
*87 _0045_
*88 _0046_
*89 _0047_
*90 _0048_
*91 _0049_
*92 _0050_
*93 _0051_
*94 _0052_
*95 _0053_
*96 _0054_
*97 _0055_
*98 _0056_
*99 _0057_
*100 _0058_
*101 _0059_
*102 _0060_
*103 _0061_
*104 _0062_
*105 _0063_
*106 _0064_
*107 _0065_
*108 _0066_
*109 _0067_
*110 _0068_
*111 _0069_
*112 _0070_
*113 _0071_
*114 _0072_
*115 _0073_
*116 _0074_
*117 _0075_
*118 _0076_
*119 _0077_
*120 _0078_
*121 _0079_
*122 _0080_
*123 _0081_
*124 _0082_
*125 _0083_
*126 _0084_
*127 _0085_
*128 _0086_
*129 _0087_
*130 _0088_
*131 _0089_
*132 _0090_
*133 _0091_
*134 _0092_
*135 _0093_
*136 _0094_
*137 _0095_
*138 _0096_
*139 _0097_
*140 _0098_
*141 _0099_
*142 _0100_
*143 _0101_
*144 _0102_
*145 _0103_
*146 _0104_
*147 _0105_
*148 _0106_
*149 _0107_
*150 _0108_
*151 _0109_
*152 _0110_
*153 _0111_
*154 _0112_
*155 _0113_
*156 _0114_
*157 _0115_
*158 _0116_
*159 _0117_
*160 _0118_
*161 _0119_
*162 _0120_
*163 _0121_
*164 _0122_
*165 _0123_
*166 _0124_
*167 _0125_
*168 _0126_
*169 _0127_
*170 _0128_
*171 _0129_
*172 _0130_
*173 _0131_
*174 _0132_
*175 _0133_
*176 _0134_
*177 _0135_
*178 _0136_
*179 _0137_
*180 _0138_
*181 _0139_
*182 _0140_
*183 _0141_
*184 _0142_
*185 _0143_
*186 _0144_
*187 _0145_
*188 _0146_
*189 _0147_
*190 _0148_
*191 _0149_
*192 _0150_
*193 _0151_
*194 _0152_
*195 _0153_
*196 _0154_
*197 _0155_
*198 _0156_
*199 _0157_
*200 _0158_
*201 _0159_
*202 _0160_
*203 _0161_
*204 _0162_
*205 _0163_
*206 _0164_
*207 _0165_
*208 _0166_
*209 _0167_
*210 _0168_
*211 _0169_
*212 _0170_
*213 _0171_
*214 _0172_
*215 _0173_
*216 _0174_
*217 _0175_
*218 _0176_
*219 _0177_
*220 _0178_
*221 _0179_
*222 _0180_
*223 _0181_
*224 _0182_
*225 _0183_
*226 _0184_
*227 _0185_
*228 _0186_
*229 _0187_
*230 _0188_
*231 _0189_
*232 _0190_
*233 _0191_
*234 _0192_
*235 _0193_
*236 _0194_
*237 _0195_
*238 _0196_
*239 _0197_
*240 _0198_
*241 _0199_
*242 _0200_
*243 _0201_
*244 _0202_
*245 _0203_
*246 _0204_
*247 _0205_
*248 _0206_
*249 _0207_
*250 _0208_
*251 _0209_
*252 _0210_
*253 _0211_
*254 _0212_
*255 _0213_
*256 _0214_
*257 _0215_
*258 _0216_
*259 _0217_
*260 _0218_
*261 _0219_
*262 _0220_
*263 _0221_
*264 _0222_
*265 _0223_
*266 _0224_
*267 _0225_
*268 _0226_
*269 _0227_
*270 _0228_
*271 _0229_
*272 _0230_
*273 _0231_
*274 _0232_
*275 _0233_
*276 _0234_
*277 _0235_
*278 _0236_
*279 _0237_
*280 _0238_
*281 _0239_
*282 _0240_
*283 _0241_
*284 _0242_
*285 _0243_
*286 _0244_
*287 _0245_
*288 _0246_
*289 _0247_
*290 _0248_
*291 _0249_
*292 _0250_
*293 _0251_
*294 _0252_
*295 _0253_
*296 _0254_
*297 _0255_
*298 _0256_
*299 _0257_
*300 _0258_
*301 _0259_
*302 _0260_
*303 _0261_
*304 _0262_
*305 _0263_
*306 _0264_
*307 _0265_
*308 _0266_
*309 _0267_
*310 _0268_
*311 _0269_
*312 _0270_
*313 _0271_
*314 _0272_
*315 _0273_
*316 _0274_
*317 _0275_
*318 _0276_
*319 _0277_
*320 _0278_
*321 _0279_
*322 _0280_
*323 _0281_
*324 _0282_
*325 _0283_
*326 _0284_
*327 _0285_
*328 _0286_
*329 _0287_
*330 _0288_
*331 _0289_
*332 _0290_
*333 _0291_
*334 _0292_
*335 _0293_
*336 _0294_
*337 _0295_
*338 _0296_
*339 _0297_
*340 _0298_
*341 _0299_
*342 _0300_
*343 _0301_
*344 _0302_
*345 _0303_
*346 _0304_
*347 _0305_
*348 _0306_
*349 _0307_
*350 _0308_
*351 _0309_
*352 _0310_
*353 _0311_
*354 _0312_
*355 _0313_
*356 _0314_
*357 _0315_
*358 _0316_
*359 _0317_
*360 _0318_
*361 _0319_
*362 _0320_
*363 _0321_
*364 _0322_
*365 _0323_
*366 _0324_
*367 _0325_
*368 _0326_
*369 _0327_
*370 _0328_
*371 _0329_
*372 _0330_
*373 _0331_
*374 _0332_
*375 _0333_
*376 _0334_
*377 _0335_
*378 _0336_
*379 _0337_
*380 _0338_
*381 _0339_
*382 _0340_
*383 _0341_
*384 _0342_
*385 _0343_
*386 _0344_
*387 _0345_
*388 _0346_
*389 _0347_
*390 _0348_
*391 _0349_
*392 _0350_
*393 _0351_
*394 _0352_
*395 _0353_
*396 _0354_
*397 _0355_
*398 _0356_
*399 _0357_
*400 _0358_
*401 _0359_
*402 _0360_
*403 _0361_
*404 _0362_
*405 _0363_
*406 _0364_
*407 _0365_
*408 _0366_
*409 _0367_
*410 _0368_
*411 _0369_
*412 _0370_
*413 _0371_
*414 _0372_
*415 _0373_
*416 _0374_
*417 _0375_
*418 _0376_
*419 _0377_
*420 _0378_
*421 _0379_
*422 _0380_
*423 _0381_
*424 _0382_
*425 _0383_
*426 _0384_
*427 _0385_
*428 _0386_
*429 _0387_
*430 _0388_
*431 _0389_
*432 _0390_
*433 _0391_
*434 _0392_
*435 _0393_
*436 _0394_
*437 _0395_
*438 _0396_
*439 _0397_
*440 _0398_
*441 _0399_
*442 _0400_
*443 _0401_
*444 _0402_
*445 _0403_
*446 _0404_
*447 _0405_
*448 _0406_
*449 _0407_
*450 _0408_
*451 _0409_
*452 _0410_
*453 _0411_
*454 _0412_
*455 _0413_
*456 _0414_
*457 _0415_
*458 _0416_
*459 _0417_
*460 _0418_
*461 _0419_
*462 _0420_
*463 _0421_
*464 _0422_
*465 _0423_
*466 _0424_
*467 _0425_
*468 _0426_
*469 _0427_
*470 _0428_
*471 _0429_
*472 _0430_
*473 _0431_
*474 _0432_
*475 _0433_
*476 _0434_
*477 _0435_
*478 _0436_
*479 _0437_
*480 _0438_
*481 _0439_
*482 _0440_
*483 _0441_
*484 _0442_
*485 _0443_
*486 _0444_
*487 _0445_
*488 _0446_
*489 _0447_
*490 _0448_
*491 _0449_
*492 _0450_
*493 _0451_
*494 _0452_
*495 _0453_
*496 _0454_
*497 _0455_
*498 _0456_
*499 _0457_
*500 _0458_
*501 _0459_
*502 _0460_
*503 _0461_
*504 _0462_
*505 _0463_
*506 _0464_
*507 _0465_
*508 _0466_
*509 _0467_
*510 _0468_
*511 _0469_
*512 _0470_
*513 _0471_
*514 _0472_
*515 _0473_
*516 _0474_
*517 _0475_
*518 _0476_
*519 _0477_
*520 _0478_
*521 _0479_
*522 _0480_
*523 _0481_
*524 _0482_
*525 _0483_
*526 _0484_
*527 _0485_
*528 _0486_
*529 _0487_
*530 _0488_
*531 _0489_
*532 _0490_
*533 _0491_
*534 _0492_
*535 _0493_
*536 _0494_
*537 _0495_
*538 _0496_
*539 _0497_
*540 _0498_
*541 _0499_
*542 _0500_
*543 _0501_
*544 _0502_
*545 _0503_
*546 _0504_
*547 _0505_
*548 _0506_
*549 _0507_
*550 _0508_
*551 _0509_
*552 _0510_
*553 _0511_
*554 _0512_
*555 _0513_
*556 _0514_
*557 _0515_
*558 _0516_
*559 _0517_
*560 _0518_
*561 _0519_
*562 _0520_
*563 _0521_
*564 _0522_
*565 _0523_
*566 _0524_
*567 _0525_
*568 _0526_
*569 _0527_
*570 _0528_
*571 _0529_
*572 _0530_
*573 _0531_
*574 _0532_
*575 _0533_
*576 _0534_
*577 _0535_
*578 _0536_
*579 _0537_
*580 _0538_
*581 _0539_
*582 _0540_
*583 _0541_
*584 _0542_
*585 _0543_
*586 _0544_
*587 _0545_
*588 _0546_
*589 _0547_
*590 _0548_
*591 _0549_
*592 _0550_
*593 _0551_
*594 _0552_
*595 _0553_
*596 _0554_
*597 _0555_
*598 _0556_
*599 _0557_
*600 _0558_
*601 _0559_
*602 _0560_
*603 _0561_
*604 _0562_
*605 _0563_
*606 _0564_
*607 _0565_
*608 _0566_
*609 _0567_
*610 _0568_
*611 _0569_
*612 _0570_
*613 _0571_
*614 _0572_
*615 _0573_
*616 _0574_
*617 _0575_
*618 _0576_
*619 _0577_
*620 _0578_
*621 _0579_
*622 _0580_
*623 _0581_
*624 _0582_
*625 _0583_
*626 _0584_
*627 _0585_
*628 _0586_
*629 _0587_
*630 _0588_
*631 _0589_
*632 _0590_
*633 _0591_
*634 _0592_
*635 _0593_
*636 _0594_
*637 _0595_
*638 _0596_
*639 _0597_
*640 _0598_
*641 _0599_
*642 _0600_
*643 _0601_
*644 _0602_
*645 _0603_
*646 _0604_
*647 _0605_
*648 _0606_
*649 _0607_
*650 _0608_
*651 _0609_
*652 _0610_
*653 _0611_
*654 _0612_
*655 _0613_
*656 _0614_
*657 _0615_
*658 _0616_
*659 _0617_
*660 _0618_
*661 _0619_
*662 _0620_
*663 _0621_
*664 _0622_
*665 _0623_
*666 _0624_
*667 _0625_
*668 _0626_
*669 _0627_
*670 _0628_
*671 _0629_
*672 _0630_
*673 _0631_
*674 _0632_
*675 _0633_
*676 _0634_
*677 _0635_
*678 _0636_
*679 _0637_
*680 _0638_
*681 _0639_
*682 _0640_
*683 _0641_
*684 _0642_
*685 _0643_
*686 _0644_
*687 _0645_
*688 _0646_
*689 _0647_
*690 _0648_
*691 _0649_
*692 _0650_
*693 _0651_
*694 _0652_
*695 _0653_
*696 _0654_
*697 _0655_
*698 _0656_
*699 _0657_
*700 _0658_
*701 _0659_
*702 _0660_
*703 _0661_
*704 _0662_
*705 _0663_
*706 _0664_
*707 _0665_
*708 _0666_
*709 _0667_
*710 _0668_
*711 _0669_
*712 _0670_
*713 _0671_
*714 _0672_
*715 _0673_
*716 _0674_
*717 _0675_
*718 _0676_
*719 _0677_
*720 _0678_
*721 _0679_
*722 _0680_
*723 _0681_
*724 _0682_
*725 _0683_
*726 _0684_
*727 _0685_
*728 _0686_
*729 _0687_
*730 _0688_
*731 _0689_
*732 _0690_
*733 _0691_
*734 _0692_
*735 _0693_
*736 _0694_
*737 _0695_
*738 _0696_
*739 _0697_
*740 _0698_
*741 _0699_
*742 _0700_
*743 _0701_
*744 _0702_
*745 _0703_
*746 _0704_
*747 _0705_
*748 _0706_
*749 _0707_
*750 _0708_
*751 _0709_
*752 _0710_
*753 _0711_
*754 _0712_
*755 _0713_
*756 _0714_
*757 _0715_
*758 _0716_
*759 _0717_
*760 _0718_
*761 _0719_
*762 _0720_
*763 _0721_
*764 _0722_
*765 _0723_
*766 _0724_
*767 _0725_
*768 _0726_
*769 _0727_
*770 _0728_
*771 _0729_
*772 _0730_
*773 _0731_
*774 _0732_
*775 _0733_
*776 _0734_
*777 _0735_
*778 _0736_
*779 _0737_
*780 _0738_
*781 _0739_
*782 _0740_
*783 _0741_
*784 _0742_
*785 _0743_
*786 _0744_
*787 _0745_
*788 _0746_
*789 _0747_
*790 _0748_
*791 _0749_
*792 _0750_
*793 _0751_
*794 _0752_
*795 _0753_
*796 _0754_
*797 _0755_
*798 _0756_
*799 _0757_
*800 _0758_
*801 _0759_
*802 _0760_
*803 _0761_
*804 _0762_
*805 _0763_
*806 _0764_
*807 _0765_
*808 _0766_
*809 _0767_
*810 _0768_
*811 _0769_
*812 _0770_
*813 _0771_
*814 _0772_
*815 _0773_
*816 _0774_
*817 _0775_
*818 _0776_
*819 _0777_
*820 _0778_
*821 _0779_
*822 _0780_
*823 _0781_
*824 _0782_
*825 _0783_
*826 _0784_
*827 _0785_
*828 _0786_
*829 _0787_
*830 _0788_
*831 _0789_
*832 _0790_
*833 _0791_
*834 _0792_
*835 _0793_
*836 _0794_
*837 _0795_
*838 _0796_
*839 _0797_
*840 _0798_
*841 _0799_
*842 _0800_
*843 _0801_
*844 _0802_
*845 _0803_
*846 _0804_
*847 _0805_
*848 _0806_
*849 _0807_
*850 _0808_
*851 _0809_
*852 _0810_
*853 _0811_
*854 _0812_
*855 _0813_
*856 _0814_
*857 _0815_
*858 _0816_
*859 _0817_
*860 _0818_
*861 _0819_
*862 _0820_
*863 _0821_
*864 _0822_
*865 _0823_
*866 _0824_
*867 _0825_
*868 _0826_
*869 _0827_
*870 _0828_
*871 _0829_
*872 _0830_
*873 _0831_
*874 _0832_
*875 _0833_
*876 _0834_
*877 _0835_
*878 _0836_
*879 _0837_
*880 _0838_
*881 _0839_
*882 _0840_
*883 _0841_
*884 _0842_
*885 _0843_
*886 _0844_
*887 _0845_
*888 _0846_
*889 _0847_
*890 _0848_
*891 _0849_
*892 _0850_
*893 _0851_
*894 _0852_
*895 _0853_
*896 _0854_
*897 _0855_
*898 _0856_
*899 _0857_
*900 _0858_
*901 _0859_
*902 _0860_
*903 _0861_
*904 _0862_
*905 _0863_
*906 _0864_
*907 _0865_
*908 _0866_
*909 _0867_
*910 _0868_
*911 _0869_
*912 _0870_
*913 _0871_
*914 _0872_
*915 _0873_
*916 _0874_
*917 _0875_
*918 _0876_
*919 _0877_
*920 _0878_
*921 _0879_
*922 _0880_
*923 _0881_
*924 _0882_
*925 _0883_
*926 _0884_
*927 _0885_
*928 _0886_
*929 _0887_
*930 _0888_
*931 _0889_
*932 _0890_
*933 _0891_
*934 _0892_
*935 _0893_
*936 _0894_
*937 _0895_
*938 _0896_
*939 _0897_
*940 _0898_
*941 _0899_
*942 _0900_
*943 _0901_
*944 _0902_
*945 _0903_
*946 _0904_
*947 _0905_
*948 _0906_
*949 _0907_
*950 _0908_
*951 _0909_
*952 _0910_
*953 _0911_
*954 _0912_
*955 _0913_
*956 _0914_
*957 _0915_
*958 _0916_
*959 _0917_
*960 _0918_
*961 _0919_
*962 _0920_
*963 _0921_
*964 _0922_
*965 _0923_
*966 _0924_
*967 _0925_
*968 _0926_
*969 _0927_
*970 _0928_
*971 _0929_
*972 _0930_
*973 _0931_
*974 _0932_
*975 _0933_
*976 _0934_
*977 _0935_
*978 _0936_
*979 _0937_
*980 _0938_
*981 _0939_
*982 _0940_
*983 _0941_
*984 _0942_
*985 _0943_
*986 _0944_
*987 _0945_
*988 _0946_
*989 _0947_
*990 _0948_
*991 _0949_
*992 _0950_
*993 _0951_
*994 _0952_
*995 _0953_
*996 _0954_
*997 _0955_
*998 _0956_
*999 _0957_
*1000 _0958_
*1001 _0959_
*1002 _0960_
*1003 _0961_
*1004 _0962_
*1005 _0963_
*1006 _0964_
*1007 _0965_
*1008 _0966_
*1009 _0967_
*1010 _0968_
*1011 _0969_
*1012 _0970_
*1013 _0971_
*1014 _0972_
*1015 _0973_
*1016 _0974_
*1017 _0975_
*1018 _0976_
*1019 _0977_
*1020 _0978_
*1021 _0979_
*1022 _0980_
*1023 _0981_
*1024 _0982_
*1025 _0983_
*1026 _0984_
*1027 _0985_
*1028 _0986_
*1029 _0987_
*1030 _0988_
*1031 _0989_
*1032 _0990_
*1033 _0991_
*1034 _0992_
*1035 _0993_
*1036 _0994_
*1037 _0995_
*1038 _0996_
*1039 _0997_
*1040 _0998_
*1041 _0999_
*1042 _1000_
*1043 _1001_
*1044 _1002_
*1045 _1003_
*1046 _1004_
*1047 _1005_
*1048 _1006_
*1049 _1007_
*1050 _1008_
*1051 _1009_
*1052 _1010_
*1053 _1011_
*1054 _1012_
*1055 _1013_
*1056 _1014_
*1057 _1015_
*1058 _1016_
*1059 _1017_
*1060 _1018_
*1061 _1019_
*1062 _1020_
*1063 _1021_
*1064 _1022_
*1065 _1023_
*1066 _1024_
*1067 _1025_
*1068 _1026_
*1069 _1027_
*1070 _1028_
*1071 _1029_
*1072 _1030_
*1073 _1031_
*1074 _1032_
*1075 _1033_
*1076 _1034_
*1077 _1035_
*1078 _1036_
*1079 _1037_
*1080 _1038_
*1081 _1039_
*1082 _1040_
*1083 _1041_
*1084 _1042_
*1085 _1043_
*1086 _1044_
*1087 _1045_
*1088 _1046_
*1089 _1047_
*1090 _1048_
*1091 _1049_
*1092 _1050_
*1093 _1051_
*1094 _1052_
*1095 _1053_
*1096 _1054_
*1097 _1055_
*1098 _1056_
*1099 _1057_
*1100 _1058_
*1101 _1059_
*1102 _1060_
*1103 _1061_
*1104 _1062_
*1105 _1063_
*1106 _1064_
*1107 _1065_
*1108 _1066_
*1109 _1067_
*1110 _1068_
*1111 _1069_
*1112 _1070_
*1113 _1071_
*1114 _1072_
*1115 _1073_
*1116 _1074_
*1117 _1075_
*1118 _1076_
*1119 _1077_
*1120 _1078_
*1121 _1079_
*1122 _1080_
*1123 _1081_
*1124 _1082_
*1125 _1083_
*1126 _1084_
*1127 _1085_
*1128 _1086_
*1129 _1087_
*1130 _1088_
*1131 _1089_
*1132 _1090_
*1133 _1091_
*1134 _1092_
*1135 _1093_
*1136 _1094_
*1137 _1095_
*1138 _1096_
*1139 _1097_
*1140 _1098_
*1141 _1099_
*1142 _1100_
*1143 _1101_
*1144 _1102_
*1145 _1103_
*1146 _1104_
*1147 _1105_
*1148 _1106_
*1149 _1107_
*1150 _1108_
*1151 _1109_
*1152 _1110_
*1153 _1111_
*1154 _1112_
*1155 _1113_
*1156 _1114_
*1157 _1115_
*1158 _1116_
*1159 _1117_
*1160 _1118_
*1161 _1119_
*1162 _1120_
*1163 _1121_
*1164 _1122_
*1165 _1123_
*1166 _1124_
*1167 _1125_
*1168 _1126_
*1169 _1127_
*1170 _1128_
*1171 _1129_
*1172 _1130_
*1173 _1131_
*1174 _1132_
*1175 _1133_
*1176 _1134_
*1177 _1135_
*1178 _1136_
*1179 _1137_
*1180 _1138_
*1181 _1139_
*1182 _1140_
*1183 _1141_
*1184 _1142_
*1185 _1143_
*1186 _1144_
*1187 _1145_
*1188 _1146_
*1189 _1147_
*1190 clknet_0_clk
*1191 clknet_1_0__leaf_clk
*1192 clknet_1_1__leaf_clk
*1193 clknet_leaf_0_clk
*1194 clknet_leaf_10_clk
*1195 clknet_leaf_11_clk
*1196 clknet_leaf_12_clk
*1197 clknet_leaf_13_clk
*1198 clknet_leaf_14_clk
*1199 clknet_leaf_15_clk
*1200 clknet_leaf_16_clk
*1201 clknet_leaf_17_clk
*1202 clknet_leaf_18_clk
*1203 clknet_leaf_19_clk
*1204 clknet_leaf_1_clk
*1205 clknet_leaf_20_clk
*1206 clknet_leaf_2_clk
*1207 clknet_leaf_3_clk
*1208 clknet_leaf_4_clk
*1209 clknet_leaf_6_clk
*1210 clknet_leaf_7_clk
*1211 clknet_leaf_8_clk
*1212 clknet_leaf_9_clk
*1213 co_processor\.Q
*1214 co_processor\.data\[0\]
*1215 co_processor\.data\[1\]
*1216 co_processor\.data\[2\]
*1217 co_processor\.data\[3\]
*1218 co_processor\.data\[4\]
*1219 co_processor\.data\[5\]
*1220 co_processor\.data\[6\]
*1221 co_processor\.data\[7\]
*1222 co_processor\.r1\[0\]
*1223 co_processor\.r1\[1\]
*1224 co_processor\.r1\[2\]
*1225 co_processor\.r1\[3\]
*1226 co_processor\.r1\[4\]
*1227 co_processor\.r1\[5\]
*1228 co_processor\.r1\[6\]
*1229 co_processor\.r1\[7\]
*1230 co_processor\.r2\[0\]
*1231 co_processor\.r2\[1\]
*1232 co_processor\.r2\[2\]
*1233 co_processor\.r2\[3\]
*1234 co_processor\.r2\[4\]
*1235 co_processor\.r2\[5\]
*1236 co_processor\.r2\[6\]
*1237 co_processor\.r2\[7\]
*1238 co_processor\.r3\[0\]
*1239 co_processor\.r3\[1\]
*1240 co_processor\.r3\[2\]
*1241 co_processor\.r3\[3\]
*1242 co_processor\.r3\[4\]
*1243 co_processor\.r3\[5\]
*1244 co_processor\.r3\[6\]
*1245 co_processor\.r3\[7\]
*1246 co_processor\.r4\[0\]
*1247 co_processor\.r4\[1\]
*1248 co_processor\.r4\[2\]
*1249 co_processor\.r4\[3\]
*1250 co_processor\.r4\[4\]
*1251 co_processor\.r4\[5\]
*1252 co_processor\.r4\[6\]
*1253 co_processor\.r4\[7\]
*1254 co_processor\.sense\[0\]
*1255 co_processor\.sense\[1\]
*1256 fault_pro\.counter1\[0\]
*1257 fault_pro\.counter1\[1\]
*1258 fault_pro\.counter1\[2\]
*1259 fault_pro\.counter2\[0\]
*1260 fault_pro\.counter2\[1\]
*1261 fault_pro\.counter2\[2\]
*1262 fault_pro\.counter3\[0\]
*1263 fault_pro\.counter3\[1\]
*1264 fault_pro\.counter3\[2\]
*1265 fault_pro\.counter4\[0\]
*1266 fault_pro\.counter4\[1\]
*1267 fault_pro\.counter4\[2\]
*1268 fault_pro\.diff1\[0\]
*1269 fault_pro\.diff1\[1\]
*1270 fault_pro\.diff1\[2\]
*1271 fault_pro\.diff1\[3\]
*1272 fault_pro\.diff1\[4\]
*1273 fault_pro\.diff1\[5\]
*1274 fault_pro\.diff1\[6\]
*1275 fault_pro\.diff1\[7\]
*1276 fault_pro\.diff1\[8\]
*1277 fault_pro\.diff2\[0\]
*1278 fault_pro\.diff2\[1\]
*1279 fault_pro\.diff2\[2\]
*1280 fault_pro\.diff2\[3\]
*1281 fault_pro\.diff2\[4\]
*1282 fault_pro\.diff2\[5\]
*1283 fault_pro\.diff2\[6\]
*1284 fault_pro\.diff2\[7\]
*1285 fault_pro\.diff2\[8\]
*1286 fault_pro\.diff3\[0\]
*1287 fault_pro\.diff3\[1\]
*1288 fault_pro\.diff3\[2\]
*1289 fault_pro\.diff3\[3\]
*1290 fault_pro\.diff3\[4\]
*1291 fault_pro\.diff3\[5\]
*1292 fault_pro\.diff3\[6\]
*1293 fault_pro\.diff3\[7\]
*1294 fault_pro\.diff3\[8\]
*1295 fault_pro\.diff4\[0\]
*1296 fault_pro\.diff4\[1\]
*1297 fault_pro\.diff4\[2\]
*1298 fault_pro\.diff4\[3\]
*1299 fault_pro\.diff4\[4\]
*1300 fault_pro\.diff4\[5\]
*1301 fault_pro\.diff4\[6\]
*1302 fault_pro\.diff4\[7\]
*1303 fault_pro\.diff4\[8\]
*1304 fault_pro\.f1
*1305 fault_pro\.f2
*1306 fault_pro\.f3
*1307 fault_pro\.f4
*1308 fault_pro\.m1\[0\]
*1309 fault_pro\.m1\[1\]
*1310 fault_pro\.m1\[2\]
*1311 fault_pro\.m1\[3\]
*1312 fault_pro\.m1\[4\]
*1313 fault_pro\.m1\[5\]
*1314 fault_pro\.m1\[6\]
*1315 fault_pro\.m1\[7\]
*1316 fault_pro\.m2\[0\]
*1317 fault_pro\.m2\[1\]
*1318 fault_pro\.m2\[2\]
*1319 fault_pro\.m2\[3\]
*1320 fault_pro\.m2\[4\]
*1321 fault_pro\.m2\[5\]
*1322 fault_pro\.m2\[6\]
*1323 fault_pro\.m2\[7\]
*1324 fault_pro\.m3\[0\]
*1325 fault_pro\.m3\[1\]
*1326 fault_pro\.m3\[2\]
*1327 fault_pro\.m3\[3\]
*1328 fault_pro\.m3\[4\]
*1329 fault_pro\.m3\[5\]
*1330 fault_pro\.m3\[6\]
*1331 fault_pro\.m3\[7\]
*1332 fault_pro\.m4\[0\]
*1333 fault_pro\.m4\[1\]
*1334 fault_pro\.m4\[2\]
*1335 fault_pro\.m4\[3\]
*1336 fault_pro\.m4\[4\]
*1337 fault_pro\.m4\[5\]
*1338 fault_pro\.m4\[6\]
*1339 fault_pro\.m4\[7\]
*1340 fault_pro\.r1\[0\]
*1341 fault_pro\.r1\[1\]
*1342 fault_pro\.r1\[2\]
*1343 fault_pro\.r1\[3\]
*1344 fault_pro\.r1\[4\]
*1345 fault_pro\.r1\[5\]
*1346 fault_pro\.r1\[6\]
*1347 fault_pro\.r1\[7\]
*1348 fault_pro\.r1\[8\]
*1349 fault_pro\.r1\[9\]
*1350 fault_pro\.r2\[0\]
*1351 fault_pro\.r2\[1\]
*1352 fault_pro\.r2\[2\]
*1353 fault_pro\.r2\[3\]
*1354 fault_pro\.r2\[4\]
*1355 fault_pro\.r2\[5\]
*1356 fault_pro\.r2\[6\]
*1357 fault_pro\.r2\[7\]
*1358 fault_pro\.r2\[8\]
*1359 fault_pro\.r2\[9\]
*1360 fault_pro\.r3\[0\]
*1361 fault_pro\.r3\[1\]
*1362 fault_pro\.r3\[2\]
*1363 fault_pro\.r3\[3\]
*1364 fault_pro\.r3\[4\]
*1365 fault_pro\.r3\[5\]
*1366 fault_pro\.r3\[6\]
*1367 fault_pro\.r3\[7\]
*1368 fault_pro\.r3\[8\]
*1369 fault_pro\.r3\[9\]
*1370 fault_pro\.r4\[0\]
*1371 fault_pro\.r4\[1\]
*1372 fault_pro\.r4\[2\]
*1373 fault_pro\.r4\[3\]
*1374 fault_pro\.r4\[4\]
*1375 fault_pro\.r4\[5\]
*1376 fault_pro\.r4\[6\]
*1377 fault_pro\.r4\[7\]
*1378 fault_pro\.r4\[8\]
*1379 fault_pro\.r4\[9\]
*1380 fault_pro\.w1\[0\]
*1381 fault_pro\.w1\[1\]
*1382 fault_pro\.w1\[2\]
*1383 fault_pro\.w1\[3\]
*1384 fault_pro\.w1\[4\]
*1385 fault_pro\.w1\[5\]
*1386 fault_pro\.w1\[6\]
*1387 fault_pro\.w1\[7\]
*1388 fault_pro\.w2\[0\]
*1389 fault_pro\.w2\[1\]
*1390 fault_pro\.w2\[2\]
*1391 fault_pro\.w2\[3\]
*1392 fault_pro\.w2\[4\]
*1393 fault_pro\.w2\[5\]
*1394 fault_pro\.w2\[6\]
*1395 fault_pro\.w2\[7\]
*1396 fault_pro\.w3\[0\]
*1397 fault_pro\.w3\[1\]
*1398 fault_pro\.w3\[2\]
*1399 fault_pro\.w3\[3\]
*1400 fault_pro\.w3\[4\]
*1401 fault_pro\.w3\[5\]
*1402 fault_pro\.w3\[6\]
*1403 fault_pro\.w3\[7\]
*1404 fault_pro\.w4\[0\]
*1405 fault_pro\.w4\[1\]
*1406 fault_pro\.w4\[2\]
*1407 fault_pro\.w4\[3\]
*1408 fault_pro\.w4\[4\]
*1409 fault_pro\.w4\[5\]
*1410 fault_pro\.w4\[6\]
*1411 fault_pro\.w4\[7\]
*1412 net1
*1413 net10
*1414 net100
*1415 net101
*1416 net102
*1417 net103
*1418 net104
*1419 net105
*1420 net106
*1421 net107
*1422 net108
*1423 net109
*1424 net11
*1425 net110
*1426 net111
*1427 net112
*1428 net113
*1429 net114
*1430 net115
*1431 net116
*1432 net117
*1433 net118
*1434 net119
*1435 net12
*1436 net120
*1437 net121
*1438 net122
*1439 net123
*1440 net124
*1441 net125
*1442 net126
*1443 net127
*1444 net128
*1445 net129
*1446 net13
*1447 net130
*1448 net131
*1449 net132
*1450 net133
*1451 net134
*1452 net135
*1453 net136
*1454 net137
*1455 net138
*1456 net139
*1457 net14
*1458 net140
*1459 net141
*1460 net142
*1461 net143
*1462 net144
*1463 net145
*1464 net146
*1465 net147
*1466 net148
*1467 net149
*1468 net15
*1469 net150
*1470 net151
*1471 net152
*1472 net153
*1473 net154
*1474 net155
*1475 net156
*1476 net157
*1477 net158
*1478 net159
*1479 net16
*1480 net160
*1481 net161
*1482 net162
*1483 net163
*1484 net164
*1485 net165
*1486 net166
*1487 net167
*1488 net168
*1489 net169
*1490 net170
*1491 net171
*1492 net172
*1493 net173
*1494 net174
*1495 net175
*1496 net176
*1497 net177
*1498 net178
*1499 net179
*1500 net180
*1501 net181
*1502 net182
*1503 net183
*1504 net184
*1505 net185
*1506 net186
*1507 net187
*1508 net188
*1509 net189
*1510 net190
*1511 net191
*1512 net192
*1513 net193
*1514 net194
*1515 net195
*1516 net196
*1517 net197
*1518 net198
*1519 net199
*1520 net2
*1521 net200
*1522 net201
*1523 net202
*1524 net203
*1525 net204
*1526 net205
*1527 net206
*1528 net207
*1529 net208
*1530 net209
*1531 net210
*1532 net211
*1533 net212
*1534 net213
*1535 net214
*1536 net215
*1537 net216
*1538 net217
*1539 net218
*1540 net219
*1541 net220
*1542 net221
*1543 net222
*1544 net223
*1545 net224
*1546 net225
*1547 net3
*1548 net33
*1549 net34
*1550 net35
*1551 net36
*1552 net37
*1553 net38
*1554 net39
*1555 net4
*1556 net40
*1557 net41
*1558 net42
*1559 net43
*1560 net44
*1561 net45
*1562 net46
*1563 net47
*1564 net48
*1565 net49
*1566 net5
*1567 net50
*1568 net51
*1569 net52
*1570 net53
*1571 net54
*1572 net55
*1573 net56
*1574 net57
*1575 net58
*1576 net59
*1577 net6
*1578 net60
*1579 net61
*1580 net62
*1581 net63
*1582 net64
*1583 net65
*1584 net66
*1585 net67
*1586 net68
*1587 net69
*1588 net7
*1589 net70
*1590 net71
*1591 net72
*1592 net73
*1593 net74
*1594 net75
*1595 net76
*1596 net77
*1597 net78
*1598 net79
*1599 net8
*1600 net80
*1601 net81
*1602 net82
*1603 net83
*1604 net84
*1605 net85
*1606 net86
*1607 net87
*1608 net88
*1609 net89
*1610 net9
*1611 net90
*1612 net91
*1613 net92
*1614 net93
*1615 net94
*1616 net95
*1617 net96
*1618 net97
*1619 net98
*1620 net99
*1621 FILLER_0_0_109
*1622 FILLER_0_0_113
*1623 FILLER_0_0_125
*1624 FILLER_0_0_137
*1625 FILLER_0_0_141
*1626 FILLER_0_0_15
*1627 FILLER_0_0_153
*1628 FILLER_0_0_165
*1629 FILLER_0_0_169
*1630 FILLER_0_0_181
*1631 FILLER_0_0_193
*1632 FILLER_0_0_197
*1633 FILLER_0_0_209
*1634 FILLER_0_0_221
*1635 FILLER_0_0_225
*1636 FILLER_0_0_237
*1637 FILLER_0_0_249
*1638 FILLER_0_0_253
*1639 FILLER_0_0_265
*1640 FILLER_0_0_27
*1641 FILLER_0_0_277
*1642 FILLER_0_0_281
*1643 FILLER_0_0_29
*1644 FILLER_0_0_293
*1645 FILLER_0_0_3
*1646 FILLER_0_0_305
*1647 FILLER_0_0_309
*1648 FILLER_0_0_321
*1649 FILLER_0_0_333
*1650 FILLER_0_0_41
*1651 FILLER_0_0_53
*1652 FILLER_0_0_57
*1653 FILLER_0_0_69
*1654 FILLER_0_0_81
*1655 FILLER_0_0_85
*1656 FILLER_0_0_97
*1657 FILLER_0_10_109
*1658 FILLER_0_10_121
*1659 FILLER_0_10_133
*1660 FILLER_0_10_139
*1661 FILLER_0_10_141
*1662 FILLER_0_10_15
*1663 FILLER_0_10_152
*1664 FILLER_0_10_164
*1665 FILLER_0_10_172
*1666 FILLER_0_10_185
*1667 FILLER_0_10_193
*1668 FILLER_0_10_197
*1669 FILLER_0_10_209
*1670 FILLER_0_10_221
*1671 FILLER_0_10_236
*1672 FILLER_0_10_248
*1673 FILLER_0_10_253
*1674 FILLER_0_10_265
*1675 FILLER_0_10_27
*1676 FILLER_0_10_29
*1677 FILLER_0_10_291
*1678 FILLER_0_10_3
*1679 FILLER_0_10_303
*1680 FILLER_0_10_307
*1681 FILLER_0_10_309
*1682 FILLER_0_10_321
*1683 FILLER_0_10_333
*1684 FILLER_0_10_41
*1685 FILLER_0_10_53
*1686 FILLER_0_10_65
*1687 FILLER_0_10_77
*1688 FILLER_0_10_83
*1689 FILLER_0_10_85
*1690 FILLER_0_10_97
*1691 FILLER_0_11_105
*1692 FILLER_0_11_111
*1693 FILLER_0_11_113
*1694 FILLER_0_11_125
*1695 FILLER_0_11_134
*1696 FILLER_0_11_144
*1697 FILLER_0_11_15
*1698 FILLER_0_11_177
*1699 FILLER_0_11_187
*1700 FILLER_0_11_193
*1701 FILLER_0_11_199
*1702 FILLER_0_11_211
*1703 FILLER_0_11_223
*1704 FILLER_0_11_245
*1705 FILLER_0_11_257
*1706 FILLER_0_11_269
*1707 FILLER_0_11_27
*1708 FILLER_0_11_277
*1709 FILLER_0_11_284
*1710 FILLER_0_11_3
*1711 FILLER_0_11_305
*1712 FILLER_0_11_317
*1713 FILLER_0_11_329
*1714 FILLER_0_11_39
*1715 FILLER_0_11_51
*1716 FILLER_0_11_55
*1717 FILLER_0_11_57
*1718 FILLER_0_11_69
*1719 FILLER_0_11_81
*1720 FILLER_0_11_93
*1721 FILLER_0_12_109
*1722 FILLER_0_12_117
*1723 FILLER_0_12_144
*1724 FILLER_0_12_15
*1725 FILLER_0_12_158
*1726 FILLER_0_12_179
*1727 FILLER_0_12_185
*1728 FILLER_0_12_191
*1729 FILLER_0_12_202
*1730 FILLER_0_12_230
*1731 FILLER_0_12_242
*1732 FILLER_0_12_250
*1733 FILLER_0_12_253
*1734 FILLER_0_12_27
*1735 FILLER_0_12_29
*1736 FILLER_0_12_3
*1737 FILLER_0_12_305
*1738 FILLER_0_12_309
*1739 FILLER_0_12_321
*1740 FILLER_0_12_333
*1741 FILLER_0_12_41
*1742 FILLER_0_12_53
*1743 FILLER_0_12_65
*1744 FILLER_0_12_77
*1745 FILLER_0_12_83
*1746 FILLER_0_12_85
*1747 FILLER_0_12_97
*1748 FILLER_0_13_105
*1749 FILLER_0_13_111
*1750 FILLER_0_13_113
*1751 FILLER_0_13_125
*1752 FILLER_0_13_15
*1753 FILLER_0_13_150
*1754 FILLER_0_13_166
*1755 FILLER_0_13_177
*1756 FILLER_0_13_185
*1757 FILLER_0_13_192
*1758 FILLER_0_13_197
*1759 FILLER_0_13_228
*1760 FILLER_0_13_240
*1761 FILLER_0_13_27
*1762 FILLER_0_13_276
*1763 FILLER_0_13_3
*1764 FILLER_0_13_308
*1765 FILLER_0_13_320
*1766 FILLER_0_13_332
*1767 FILLER_0_13_39
*1768 FILLER_0_13_51
*1769 FILLER_0_13_55
*1770 FILLER_0_13_57
*1771 FILLER_0_13_69
*1772 FILLER_0_13_81
*1773 FILLER_0_13_93
*1774 FILLER_0_14_109
*1775 FILLER_0_14_121
*1776 FILLER_0_14_135
*1777 FILLER_0_14_139
*1778 FILLER_0_14_148
*1779 FILLER_0_14_15
*1780 FILLER_0_14_163
*1781 FILLER_0_14_175
*1782 FILLER_0_14_210
*1783 FILLER_0_14_222
*1784 FILLER_0_14_231
*1785 FILLER_0_14_238
*1786 FILLER_0_14_27
*1787 FILLER_0_14_273
*1788 FILLER_0_14_29
*1789 FILLER_0_14_290
*1790 FILLER_0_14_3
*1791 FILLER_0_14_305
*1792 FILLER_0_14_312
*1793 FILLER_0_14_324
*1794 FILLER_0_14_332
*1795 FILLER_0_14_41
*1796 FILLER_0_14_53
*1797 FILLER_0_14_65
*1798 FILLER_0_14_77
*1799 FILLER_0_14_83
*1800 FILLER_0_14_85
*1801 FILLER_0_14_97
*1802 FILLER_0_15_105
*1803 FILLER_0_15_111
*1804 FILLER_0_15_113
*1805 FILLER_0_15_121
*1806 FILLER_0_15_132
*1807 FILLER_0_15_138
*1808 FILLER_0_15_142
*1809 FILLER_0_15_146
*1810 FILLER_0_15_15
*1811 FILLER_0_15_167
*1812 FILLER_0_15_193
*1813 FILLER_0_15_201
*1814 FILLER_0_15_209
*1815 FILLER_0_15_215
*1816 FILLER_0_15_223
*1817 FILLER_0_15_245
*1818 FILLER_0_15_262
*1819 FILLER_0_15_27
*1820 FILLER_0_15_274
*1821 FILLER_0_15_281
*1822 FILLER_0_15_293
*1823 FILLER_0_15_3
*1824 FILLER_0_15_309
*1825 FILLER_0_15_321
*1826 FILLER_0_15_333
*1827 FILLER_0_15_39
*1828 FILLER_0_15_51
*1829 FILLER_0_15_55
*1830 FILLER_0_15_57
*1831 FILLER_0_15_69
*1832 FILLER_0_15_81
*1833 FILLER_0_15_93
*1834 FILLER_0_16_109
*1835 FILLER_0_16_139
*1836 FILLER_0_16_149
*1837 FILLER_0_16_15
*1838 FILLER_0_16_182
*1839 FILLER_0_16_194
*1840 FILLER_0_16_197
*1841 FILLER_0_16_209
*1842 FILLER_0_16_221
*1843 FILLER_0_16_244
*1844 FILLER_0_16_259
*1845 FILLER_0_16_27
*1846 FILLER_0_16_29
*1847 FILLER_0_16_298
*1848 FILLER_0_16_3
*1849 FILLER_0_16_306
*1850 FILLER_0_16_312
*1851 FILLER_0_16_324
*1852 FILLER_0_16_332
*1853 FILLER_0_16_41
*1854 FILLER_0_16_53
*1855 FILLER_0_16_65
*1856 FILLER_0_16_77
*1857 FILLER_0_16_83
*1858 FILLER_0_16_85
*1859 FILLER_0_16_97
*1860 FILLER_0_17_105
*1861 FILLER_0_17_111
*1862 FILLER_0_17_113
*1863 FILLER_0_17_125
*1864 FILLER_0_17_143
*1865 FILLER_0_17_15
*1866 FILLER_0_17_166
*1867 FILLER_0_17_177
*1868 FILLER_0_17_189
*1869 FILLER_0_17_197
*1870 FILLER_0_17_223
*1871 FILLER_0_17_233
*1872 FILLER_0_17_253
*1873 FILLER_0_17_27
*1874 FILLER_0_17_3
*1875 FILLER_0_17_324
*1876 FILLER_0_17_332
*1877 FILLER_0_17_39
*1878 FILLER_0_17_51
*1879 FILLER_0_17_55
*1880 FILLER_0_17_57
*1881 FILLER_0_17_69
*1882 FILLER_0_17_81
*1883 FILLER_0_17_93
*1884 FILLER_0_18_109
*1885 FILLER_0_18_121
*1886 FILLER_0_18_129
*1887 FILLER_0_18_136
*1888 FILLER_0_18_141
*1889 FILLER_0_18_15
*1890 FILLER_0_18_157
*1891 FILLER_0_18_181
*1892 FILLER_0_18_195
*1893 FILLER_0_18_197
*1894 FILLER_0_18_218
*1895 FILLER_0_18_228
*1896 FILLER_0_18_248
*1897 FILLER_0_18_27
*1898 FILLER_0_18_29
*1899 FILLER_0_18_3
*1900 FILLER_0_18_309
*1901 FILLER_0_18_328
*1902 FILLER_0_18_334
*1903 FILLER_0_18_41
*1904 FILLER_0_18_53
*1905 FILLER_0_18_65
*1906 FILLER_0_18_77
*1907 FILLER_0_18_83
*1908 FILLER_0_18_85
*1909 FILLER_0_18_97
*1910 FILLER_0_19_105
*1911 FILLER_0_19_111
*1912 FILLER_0_19_113
*1913 FILLER_0_19_121
*1914 FILLER_0_19_143
*1915 FILLER_0_19_15
*1916 FILLER_0_19_166
*1917 FILLER_0_19_183
*1918 FILLER_0_19_202
*1919 FILLER_0_19_219
*1920 FILLER_0_19_223
*1921 FILLER_0_19_225
*1922 FILLER_0_19_27
*1923 FILLER_0_19_276
*1924 FILLER_0_19_3
*1925 FILLER_0_19_303
*1926 FILLER_0_19_315
*1927 FILLER_0_19_332
*1928 FILLER_0_19_39
*1929 FILLER_0_19_51
*1930 FILLER_0_19_55
*1931 FILLER_0_19_57
*1932 FILLER_0_19_69
*1933 FILLER_0_19_81
*1934 FILLER_0_19_93
*1935 FILLER_0_1_105
*1936 FILLER_0_1_111
*1937 FILLER_0_1_113