*SPEF "ieee 1481-1999"
*DESIGN "tt_um_ajstein_stopwatch"
*DATE "20:06:41 Friday May 10, 2024"
*VENDOR "The OpenROAD Project"
*PROGRAM "OpenROAD"
*VERSION "da0053d7b0014ab9c87ea148875ff6c2a0f9b658"
*DESIGN_FLOW "NAME_SCOPE LOCAL" "PIN_CAP NONE"
*DIVIDER /
*DELIMITER :
*BUS_DELIMITER []
*T_UNIT 1 NS
*C_UNIT 1 PF
*R_UNIT 1 OHM
*L_UNIT 1 HENRY

*NAME_MAP
*3 clk
*4 ena
*5 rst_n
*6 ui_in[0]
*7 ui_in[1]
*8 ui_in[2]
*9 ui_in[3]
*10 ui_in[4]
*11 ui_in[5]
*12 ui_in[6]
*13 ui_in[7]
*14 uio_in[0]
*15 uio_in[1]
*16 uio_in[2]
*17 uio_in[3]
*18 uio_in[4]
*19 uio_in[5]
*20 uio_in[6]
*21 uio_in[7]
*22 net2
*23 net3
*24 net4
*25 net5
*26 net6
*27 net7
*28 net8
*29 net9
*30 net10
*31 net11
*32 net12
*33 net13
*34 net14
*35 net15
*36 net16
*37 net17
*38 uo_out[0]
*39 uo_out[1]
*40 uo_out[2]
*41 uo_out[3]
*42 uo_out[4]
*43 uo_out[5]
*44 uo_out[6]
*45 net18
*46 DEBUG_SIGS_GTKWAVE\.\@0\$slideswitch\[0\]
*47 DEBUG_SIGS_GTKWAVE\.\@0\$slideswitch\[1\]
*48 DEBUG_SIGS_GTKWAVE\.\@0\$slideswitch\[2\]
*49 DEBUG_SIGS_GTKWAVE\.\@0\$slideswitch\[3\]
*50 DEBUG_SIGS_GTKWAVE\.\@0\$slideswitch\[4\]
*51 DEBUG_SIGS_GTKWAVE\.\@0\$slideswitch\[5\]
*52 DEBUG_SIGS_GTKWAVE\.\@0\$slideswitch\[6\]
*53 DEBUG_SIGS_GTKWAVE\.\@0\$slideswitch\[7\]
*54 DEBUG_SIGS_GTKWAVE\.\@0\$sseg_segment_n\[0\]
*55 DEBUG_SIGS_GTKWAVE\.\@0\$sseg_segment_n\[1\]
*56 DEBUG_SIGS_GTKWAVE\.\@0\$sseg_segment_n\[2\]
*57 DEBUG_SIGS_GTKWAVE\.\@0\$sseg_segment_n\[3\]
*58 DEBUG_SIGS_GTKWAVE\.\@0\$sseg_segment_n\[4\]
*59 DEBUG_SIGS_GTKWAVE\.\@0\$sseg_segment_n\[5\]
*60 DEBUG_SIGS_GTKWAVE\.\@0\$sseg_segment_n\[6\]
*61 DEBUG_SIGS_GTKWAVE\.\/digit\[0\]\.\/leds\[0\]\.\/\/\@0\$viz_lit
*62 DEBUG_SIGS_GTKWAVE\.\/digit\[0\]\.\/leds\[1\]\.\/\/\@0\$viz_lit
*63 DEBUG_SIGS_GTKWAVE\.\/digit\[0\]\.\/leds\[2\]\.\/\/\@0\$viz_lit
*64 DEBUG_SIGS_GTKWAVE\.\/digit\[0\]\.\/leds\[3\]\.\/\/\@0\$viz_lit
*65 DEBUG_SIGS_GTKWAVE\.\/digit\[0\]\.\/leds\[4\]\.\/\/\@0\$viz_lit
*66 DEBUG_SIGS_GTKWAVE\.\/digit\[0\]\.\/leds\[5\]\.\/\/\@0\$viz_lit
*67 DEBUG_SIGS_GTKWAVE\.\/digit\[0\]\.\/leds\[6\]\.\/\/\@0\$viz_lit
*68 DEBUG_SIGS_GTKWAVE\.\/fpga_pins\.\/fpga\.\/\/\@0\$cycle_counter\[0\]
*69 DEBUG_SIGS_GTKWAVE\.\/fpga_pins\.\/fpga\.\/\/\@0\$cycle_counter\[10\]
*70 DEBUG_SIGS_GTKWAVE\.\/fpga_pins\.\/fpga\.\/\/\@0\$cycle_counter\[11\]
*71 DEBUG_SIGS_GTKWAVE\.\/fpga_pins\.\/fpga\.\/\/\@0\$cycle_counter\[12\]
*72 DEBUG_SIGS_GTKWAVE\.\/fpga_pins\.\/fpga\.\/\/\@0\$cycle_counter\[13\]
*73 DEBUG_SIGS_GTKWAVE\.\/fpga_pins\.\/fpga\.\/\/\@0\$cycle_counter\[14\]
*74 DEBUG_SIGS_GTKWAVE\.\/fpga_pins\.\/fpga\.\/\/\@0\$cycle_counter\[15\]
*75 DEBUG_SIGS_GTKWAVE\.\/fpga_pins\.\/fpga\.\/\/\@0\$cycle_counter\[16\]
*76 DEBUG_SIGS_GTKWAVE\.\/fpga_pins\.\/fpga\.\/\/\@0\$cycle_counter\[17\]
*77 DEBUG_SIGS_GTKWAVE\.\/fpga_pins\.\/fpga\.\/\/\@0\$cycle_counter\[18\]
*78 DEBUG_SIGS_GTKWAVE\.\/fpga_pins\.\/fpga\.\/\/\@0\$cycle_counter\[19\]
*79 DEBUG_SIGS_GTKWAVE\.\/fpga_pins\.\/fpga\.\/\/\@0\$cycle_counter\[1\]
*80 DEBUG_SIGS_GTKWAVE\.\/fpga_pins\.\/fpga\.\/\/\@0\$cycle_counter\[20\]
*81 DEBUG_SIGS_GTKWAVE\.\/fpga_pins\.\/fpga\.\/\/\@0\$cycle_counter\[21\]
*82 DEBUG_SIGS_GTKWAVE\.\/fpga_pins\.\/fpga\.\/\/\@0\$cycle_counter\[22\]
*83 DEBUG_SIGS_GTKWAVE\.\/fpga_pins\.\/fpga\.\/\/\@0\$cycle_counter\[23\]
*84 DEBUG_SIGS_GTKWAVE\.\/fpga_pins\.\/fpga\.\/\/\@0\$cycle_counter\[24\]
*85 DEBUG_SIGS_GTKWAVE\.\/fpga_pins\.\/fpga\.\/\/\@0\$cycle_counter\[25\]
*86 DEBUG_SIGS_GTKWAVE\.\/fpga_pins\.\/fpga\.\/\/\@0\$cycle_counter\[26\]
*87 DEBUG_SIGS_GTKWAVE\.\/fpga_pins\.\/fpga\.\/\/\@0\$cycle_counter\[27\]
*88 DEBUG_SIGS_GTKWAVE\.\/fpga_pins\.\/fpga\.\/\/\@0\$cycle_counter\[28\]
*89 DEBUG_SIGS_GTKWAVE\.\/fpga_pins\.\/fpga\.\/\/\@0\$cycle_counter\[29\]
*90 DEBUG_SIGS_GTKWAVE\.\/fpga_pins\.\/fpga\.\/\/\@0\$cycle_counter\[2\]
*91 DEBUG_SIGS_GTKWAVE\.\/fpga_pins\.\/fpga\.\/\/\@0\$cycle_counter\[30\]
*92 DEBUG_SIGS_GTKWAVE\.\/fpga_pins\.\/fpga\.\/\/\@0\$cycle_counter\[31\]
*93 DEBUG_SIGS_GTKWAVE\.\/fpga_pins\.\/fpga\.\/\/\@0\$cycle_counter\[3\]
*94 DEBUG_SIGS_GTKWAVE\.\/fpga_pins\.\/fpga\.\/\/\@0\$cycle_counter\[4\]
*95 DEBUG_SIGS_GTKWAVE\.\/fpga_pins\.\/fpga\.\/\/\@0\$cycle_counter\[5\]
*96 DEBUG_SIGS_GTKWAVE\.\/fpga_pins\.\/fpga\.\/\/\@0\$cycle_counter\[6\]
*97 DEBUG_SIGS_GTKWAVE\.\/fpga_pins\.\/fpga\.\/\/\@0\$cycle_counter\[7\]
*98 DEBUG_SIGS_GTKWAVE\.\/fpga_pins\.\/fpga\.\/\/\@0\$cycle_counter\[8\]
*99 DEBUG_SIGS_GTKWAVE\.\/fpga_pins\.\/fpga\.\/\/\@0\$cycle_counter\[9\]
*100 DEBUG_SIGS_GTKWAVE\.\/fpga_pins\.\/fpga\.\/\/\@0\$display_counter\[0\]
*101 DEBUG_SIGS_GTKWAVE\.\/fpga_pins\.\/fpga\.\/\/\@0\$display_counter\[1\]
*102 DEBUG_SIGS_GTKWAVE\.\/fpga_pins\.\/fpga\.\/\/\@0\$display_counter\[2\]
*103 DEBUG_SIGS_GTKWAVE\.\/fpga_pins\.\/fpga\.\/\/\@0\$display_counter\[3\]
*104 DEBUG_SIGS_GTKWAVE\.\/fpga_pins\.\/fpga\.\/\/\@0\$reset
*105 DEBUG_SIGS_GTKWAVE\.\/fpga_pins\.\/fpga\.\/\/\@0\$segments\[0\]
*106 DEBUG_SIGS_GTKWAVE\.\/fpga_pins\.\/fpga\.\/\/\@0\$segments\[1\]
*107 DEBUG_SIGS_GTKWAVE\.\/fpga_pins\.\/fpga\.\/\/\@0\$segments\[2\]
*108 DEBUG_SIGS_GTKWAVE\.\/fpga_pins\.\/fpga\.\/\/\@0\$segments\[3\]
*109 DEBUG_SIGS_GTKWAVE\.\/fpga_pins\.\/fpga\.\/\/\@0\$segments\[4\]
*110 DEBUG_SIGS_GTKWAVE\.\/fpga_pins\.\/fpga\.\/\/\@0\$segments\[5\]
*111 DEBUG_SIGS_GTKWAVE\.\/fpga_pins\.\/fpga\.\/\/\@0\$segments\[6\]
*112 DEBUG_SIGS_GTKWAVE\.\/switch\[0\]\.\/\@0\$viz_switch
*113 DEBUG_SIGS_GTKWAVE\.\/switch\[1\]\.\/\@0\$viz_switch
*114 DEBUG_SIGS_GTKWAVE\.\/switch\[2\]\.\/\@0\$viz_switch
*115 DEBUG_SIGS_GTKWAVE\.\/switch\[3\]\.\/\@0\$viz_switch
*116 DEBUG_SIGS_GTKWAVE\.\/switch\[4\]\.\/\@0\$viz_switch
*117 DEBUG_SIGS_GTKWAVE\.\/switch\[5\]\.\/\@0\$viz_switch
*118 DEBUG_SIGS_GTKWAVE\.\/switch\[6\]\.\/\@0\$viz_switch
*119 DEBUG_SIGS_GTKWAVE\.\/switch\[7\]\.\/\@0\$viz_switch
*120 FpgaPins_Fpga_cycle_counter_a1\[0\]
*121 FpgaPins_Fpga_cycle_counter_a1\[10\]
*122 FpgaPins_Fpga_cycle_counter_a1\[11\]
*123 FpgaPins_Fpga_cycle_counter_a1\[12\]
*124 FpgaPins_Fpga_cycle_counter_a1\[13\]
*125 FpgaPins_Fpga_cycle_counter_a1\[14\]
*126 FpgaPins_Fpga_cycle_counter_a1\[15\]
*127 FpgaPins_Fpga_cycle_counter_a1\[16\]
*128 FpgaPins_Fpga_cycle_counter_a1\[17\]
*129 FpgaPins_Fpga_cycle_counter_a1\[18\]
*130 FpgaPins_Fpga_cycle_counter_a1\[19\]
*131 FpgaPins_Fpga_cycle_counter_a1\[1\]
*132 FpgaPins_Fpga_cycle_counter_a1\[20\]
*133 FpgaPins_Fpga_cycle_counter_a1\[21\]
*134 FpgaPins_Fpga_cycle_counter_a1\[22\]
*135 FpgaPins_Fpga_cycle_counter_a1\[23\]
*136 FpgaPins_Fpga_cycle_counter_a1\[24\]
*137 FpgaPins_Fpga_cycle_counter_a1\[25\]
*138 FpgaPins_Fpga_cycle_counter_a1\[26\]
*139 FpgaPins_Fpga_cycle_counter_a1\[27\]
*140 FpgaPins_Fpga_cycle_counter_a1\[28\]
*141 FpgaPins_Fpga_cycle_counter_a1\[29\]
*142 FpgaPins_Fpga_cycle_counter_a1\[2\]
*143 FpgaPins_Fpga_cycle_counter_a1\[30\]
*144 FpgaPins_Fpga_cycle_counter_a1\[31\]
*145 FpgaPins_Fpga_cycle_counter_a1\[3\]
*146 FpgaPins_Fpga_cycle_counter_a1\[4\]
*147 FpgaPins_Fpga_cycle_counter_a1\[5\]
*148 FpgaPins_Fpga_cycle_counter_a1\[6\]
*149 FpgaPins_Fpga_cycle_counter_a1\[7\]
*150 FpgaPins_Fpga_cycle_counter_a1\[8\]
*151 FpgaPins_Fpga_cycle_counter_a1\[9\]
*152 FpgaPins_Fpga_display_counter_a1\[0\]
*153 FpgaPins_Fpga_display_counter_a1\[1\]
*154 FpgaPins_Fpga_display_counter_a1\[2\]
*155 FpgaPins_Fpga_display_counter_a1\[3\]
*156 _000_
*157 _001_
*158 _002_
*159 _003_
*160 _004_
*161 _005_
*162 _006_
*163 _007_
*164 _008_
*165 _009_
*166 _010_
*167 _011_
*168 _012_
*169 _013_
*170 _014_
*171 _015_
*172 _016_
*173 _017_
*174 _018_
*175 _019_
*176 _020_
*177 _021_
*178 _022_
*179 _023_
*180 _024_
*181 _025_
*182 _026_
*183 _027_
*184 _028_
*185 _029_
*186 _030_
*187 _031_
*188 _032_
*189 _033_
*190 _034_
*191 _035_
*192 _036_
*193 _037_
*194 _038_
*195 _039_
*196 _040_
*197 _041_
*198 _042_
*199 _043_
*200 _044_
*201 _045_
*202 _046_
*203 _047_
*204 _048_
*205 _049_
*206 _050_
*207 _051_
*208 _052_
*209 _053_
*210 _054_
*211 _055_
*212 _056_
*213 _057_
*214 _058_
*215 _059_
*216 _060_
*217 _061_
*218 _062_
*219 _063_
*220 _064_
*221 _065_
*222 _066_
*223 _067_
*224 _068_
*225 _069_
*226 _070_
*227 _071_
*228 _072_
*229 _073_
*230 _074_
*231 _075_
*232 _076_
*233 _077_
*234 _078_
*235 _079_
*236 _080_
*237 _081_
*238 _082_
*239 _083_
*240 _084_
*241 _085_
*242 _086_
*243 _087_
*244 _088_
*245 _089_
*246 _090_
*247 _091_
*248 _092_
*249 _093_
*250 _094_
*251 _095_
*252 _096_
*253 _097_
*254 _098_
*255 _099_
*256 _100_
*257 _101_
*258 _102_
*259 _103_
*260 _104_
*261 _105_
*262 _106_
*263 _107_
*264 _108_
*265 _109_
*266 _110_
*267 _111_
*268 _112_
*269 _113_
*270 _114_
*271 _115_
*272 _116_
*273 clknet_0_clk
*274 clknet_2_0__leaf_clk
*275 clknet_2_1__leaf_clk
*276 clknet_2_2__leaf_clk
*277 clknet_2_3__leaf_clk
*278 net1
*279 net19
*280 net20
*281 net21
*282 net22
*283 net23
*284 net24
*285 net25
*286 net26
*287 net27
*288 net28
*289 net29
*290 net30
*291 net31
*292 net32
*293 net33
*294 net34
*295 net35
*296 net36
*297 net37
*298 net38
*299 net39
*300 net40
*301 net41
*302 net42
*303 net43
*304 net44
*305 net45
*306 FILLER_0_0_109
*307 FILLER_0_0_113
*308 FILLER_0_0_125
*309 FILLER_0_0_137
*310 FILLER_0_0_141
*311 FILLER_0_0_15
*312 FILLER_0_0_153
*313 FILLER_0_0_165
*314 FILLER_0_0_169
*315 FILLER_0_0_181
*316 FILLER_0_0_193
*317 FILLER_0_0_197
*318 FILLER_0_0_209
*319 FILLER_0_0_221
*320 FILLER_0_0_225
*321 FILLER_0_0_237
*322 FILLER_0_0_249
*323 FILLER_0_0_253
*324 FILLER_0_0_265
*325 FILLER_0_0_27
*326 FILLER_0_0_277
*327 FILLER_0_0_281
*328 FILLER_0_0_29
*329 FILLER_0_0_293
*330 FILLER_0_0_3
*331 FILLER_0_0_305
*332 FILLER_0_0_309
*333 FILLER_0_0_321
*334 FILLER_0_0_333
*335 FILLER_0_0_41
*336 FILLER_0_0_53
*337 FILLER_0_0_57
*338 FILLER_0_0_69
*339 FILLER_0_0_81
*340 FILLER_0_0_85
*341 FILLER_0_0_97
*342 FILLER_0_10_109
*343 FILLER_0_10_121
*344 FILLER_0_10_133
*345 FILLER_0_10_139
*346 FILLER_0_10_141
*347 FILLER_0_10_15
*348 FILLER_0_10_153
*349 FILLER_0_10_165
*350 FILLER_0_10_177
*351 FILLER_0_10_189
*352 FILLER_0_10_195
*353 FILLER_0_10_197
*354 FILLER_0_10_209
*355 FILLER_0_10_221
*356 FILLER_0_10_233
*357 FILLER_0_10_245
*358 FILLER_0_10_251
*359 FILLER_0_10_253
*360 FILLER_0_10_265
*361 FILLER_0_10_27
*362 FILLER_0_10_277
*363 FILLER_0_10_289
*364 FILLER_0_10_29
*365 FILLER_0_10_3
*366 FILLER_0_10_301
*367 FILLER_0_10_307
*368 FILLER_0_10_309
*369 FILLER_0_10_321
*370 FILLER_0_10_333
*371 FILLER_0_10_41
*372 FILLER_0_10_53
*373 FILLER_0_10_65
*374 FILLER_0_10_77
*375 FILLER_0_10_83
*376 FILLER_0_10_85
*377 FILLER_0_10_97
*378 FILLER_0_11_105
*379 FILLER_0_11_111
*380 FILLER_0_11_113
*381 FILLER_0_11_125
*382 FILLER_0_11_137
*383 FILLER_0_11_149
*384 FILLER_0_11_15
*385 FILLER_0_11_161
*386 FILLER_0_11_167
*387 FILLER_0_11_169
*388 FILLER_0_11_181
*389 FILLER_0_11_193
*390 FILLER_0_11_205
*391 FILLER_0_11_217
*392 FILLER_0_11_223
*393 FILLER_0_11_225
*394 FILLER_0_11_237
*395 FILLER_0_11_249
*396 FILLER_0_11_261
*397 FILLER_0_11_27
*398 FILLER_0_11_273
*399 FILLER_0_11_279
*400 FILLER_0_11_281
*401 FILLER_0_11_293
*402 FILLER_0_11_3
*403 FILLER_0_11_305
*404 FILLER_0_11_317
*405 FILLER_0_11_329
*406 FILLER_0_11_39
*407 FILLER_0_11_51
*408 FILLER_0_11_55
*409 FILLER_0_11_57
*410 FILLER_0_11_69
*411 FILLER_0_11_81
*412 FILLER_0_11_93
*413 FILLER_0_12_109
*414 FILLER_0_12_121
*415 FILLER_0_12_133
*416 FILLER_0_12_139
*417 FILLER_0_12_141
*418 FILLER_0_12_15
*419 FILLER_0_12_153
*420 FILLER_0_12_165
*421 FILLER_0_12_177
*422 FILLER_0_12_189
*423 FILLER_0_12_195
*424 FILLER_0_12_197
*425 FILLER_0_12_209
*426 FILLER_0_12_221
*427 FILLER_0_12_233
*428 FILLER_0_12_245
*429 FILLER_0_12_251
*430 FILLER_0_12_253
*431 FILLER_0_12_265
*432 FILLER_0_12_27
*433 FILLER_0_12_277
*434 FILLER_0_12_289
*435 FILLER_0_12_29
*436 FILLER_0_12_3
*437 FILLER_0_12_301
*438 FILLER_0_12_307
*439 FILLER_0_12_309
*440 FILLER_0_12_321
*441 FILLER_0_12_333
*442 FILLER_0_12_41
*443 FILLER_0_12_53
*444 FILLER_0_12_65
*445 FILLER_0_12_77
*446 FILLER_0_12_83
*447 FILLER_0_12_85
*448 FILLER_0_12_97
*449 FILLER_0_13_105
*450 FILLER_0_13_111
*451 FILLER_0_13_113
*452 FILLER_0_13_125
*453 FILLER_0_13_137
*454 FILLER_0_13_149
*455 FILLER_0_13_15
*456 FILLER_0_13_161
*457 FILLER_0_13_167
*458 FILLER_0_13_169
*459 FILLER_0_13_181
*460 FILLER_0_13_193
*461 FILLER_0_13_205
*462 FILLER_0_13_217
*463 FILLER_0_13_223
*464 FILLER_0_13_225
*465 FILLER_0_13_237
*466 FILLER_0_13_249
*467 FILLER_0_13_261
*468 FILLER_0_13_27
*469 FILLER_0_13_273
*470 FILLER_0_13_279
*471 FILLER_0_13_281
*472 FILLER_0_13_293
*473 FILLER_0_13_3
*474 FILLER_0_13_305
*475 FILLER_0_13_317
*476 FILLER_0_13_329
*477 FILLER_0_13_39
*478 FILLER_0_13_51
*479 FILLER_0_13_55
*480 FILLER_0_13_57
*481 FILLER_0_13_69
*482 FILLER_0_13_81
*483 FILLER_0_13_93
*484 FILLER_0_14_109
*485 FILLER_0_14_121
*486 FILLER_0_14_133
*487 FILLER_0_14_139
*488 FILLER_0_14_141
*489 FILLER_0_14_15
*490 FILLER_0_14_153
*491 FILLER_0_14_165
*492 FILLER_0_14_177
*493 FILLER_0_14_189
*494 FILLER_0_14_195
*495 FILLER_0_14_197
*496 FILLER_0_14_209
*497 FILLER_0_14_221
*498 FILLER_0_14_233
*499 FILLER_0_14_245
*500 FILLER_0_14_251
*501 FILLER_0_14_253
*502 FILLER_0_14_265
*503 FILLER_0_14_27
*504 FILLER_0_14_277
*505 FILLER_0_14_289
*506 FILLER_0_14_29
*507 FILLER_0_14_3
*508 FILLER_0_14_301
*509 FILLER_0_14_307
*510 FILLER_0_14_309
*511 FILLER_0_14_321
*512 FILLER_0_14_333
*513 FILLER_0_14_41
*514 FILLER_0_14_53
*515 FILLER_0_14_65
*516 FILLER_0_14_77
*517 FILLER_0_14_83
*518 FILLER_0_14_85
*519 FILLER_0_14_97
*520 FILLER_0_15_105
*521 FILLER_0_15_111
*522 FILLER_0_15_113
*523 FILLER_0_15_125
*524 FILLER_0_15_137
*525 FILLER_0_15_149
*526 FILLER_0_15_15
*527 FILLER_0_15_161
*528 FILLER_0_15_167
*529 FILLER_0_15_169
*530 FILLER_0_15_181
*531 FILLER_0_15_193
*532 FILLER_0_15_205
*533 FILLER_0_15_217
*534 FILLER_0_15_223
*535 FILLER_0_15_225
*536 FILLER_0_15_237
*537 FILLER_0_15_249
*538 FILLER_0_15_261
*539 FILLER_0_15_27
*540 FILLER_0_15_273
*541 FILLER_0_15_279
*542 FILLER_0_15_281
*543 FILLER_0_15_293
*544 FILLER_0_15_3
*545 FILLER_0_15_305
*546 FILLER_0_15_317
*547 FILLER_0_15_329
*548 FILLER_0_15_39
*549 FILLER_0_15_51
*550 FILLER_0_15_55
*551 FILLER_0_15_57
*552 FILLER_0_15_69
*553 FILLER_0_15_81
*554 FILLER_0_15_93
*555 FILLER_0_16_109
*556 FILLER_0_16_121
*557 FILLER_0_16_133
*558 FILLER_0_16_139
*559 FILLER_0_16_141
*560 FILLER_0_16_15
*561 FILLER_0_16_153
*562 FILLER_0_16_165
*563 FILLER_0_16_177
*564 FILLER_0_16_189
*565 FILLER_0_16_195
*566 FILLER_0_16_197
*567 FILLER_0_16_209
*568 FILLER_0_16_221
*569 FILLER_0_16_233
*570 FILLER_0_16_245
*571 FILLER_0_16_251
*572 FILLER_0_16_253
*573 FILLER_0_16_265
*574 FILLER_0_16_27
*575 FILLER_0_16_277
*576 FILLER_0_16_289
*577 FILLER_0_16_29
*578 FILLER_0_16_3
*579 FILLER_0_16_301
*580 FILLER_0_16_307
*581 FILLER_0_16_309
*582 FILLER_0_16_321
*583 FILLER_0_16_333
*584 FILLER_0_16_41
*585 FILLER_0_16_53
*586 FILLER_0_16_65
*587 FILLER_0_16_77
*588 FILLER_0_16_83
*589 FILLER_0_16_85
*590 FILLER_0_16_97
*591 FILLER_0_17_105
*592 FILLER_0_17_111
*593 FILLER_0_17_113
*594 FILLER_0_17_125
*595 FILLER_0_17_137
*596 FILLER_0_17_149
*597 FILLER_0_17_15
*598 FILLER_0_17_161
*599 FILLER_0_17_167
*600 FILLER_0_17_169
*601 FILLER_0_17_181
*602 FILLER_0_17_193
*603 FILLER_0_17_205
*604 FILLER_0_17_217
*605 FILLER_0_17_223
*606 FILLER_0_17_225
*607 FILLER_0_17_237
*608 FILLER_0_17_249
*609 FILLER_0_17_261
*610 FILLER_0_17_27
*611 FILLER_0_17_273
*612 FILLER_0_17_279
*613 FILLER_0_17_281
*614 FILLER_0_17_293
*615 FILLER_0_17_3
*616 FILLER_0_17_305
*617 FILLER_0_17_317
*618 FILLER_0_17_329
*619 FILLER_0_17_39
*620 FILLER_0_17_51
*621 FILLER_0_17_55
*622 FILLER_0_17_57
*623 FILLER_0_17_69
*624 FILLER_0_17_81
*625 FILLER_0_17_93
*626 FILLER_0_18_109
*627 FILLER_0_18_121
*628 FILLER_0_18_133
*629 FILLER_0_18_139
*630 FILLER_0_18_141
*631 FILLER_0_18_15
*632 FILLER_0_18_153
*633 FILLER_0_18_165
*634 FILLER_0_18_177
*635 FILLER_0_18_189
*636 FILLER_0_18_195
*637 FILLER_0_18_197
*638 FILLER_0_18_209
*639 FILLER_0_18_221
*640 FILLER_0_18_233
*641 FILLER_0_18_245
*642 FILLER_0_18_251
*643 FILLER_0_18_253
*644 FILLER_0_18_265
*645 FILLER_0_18_27
*646 FILLER_0_18_277
*647 FILLER_0_18_289
*648 FILLER_0_18_29
*649 FILLER_0_18_3
*650 FILLER_0_18_301
*651 FILLER_0_18_307
*652 FILLER_0_18_309
*653 FILLER_0_18_321
*654 FILLER_0_18_333
*655 FILLER_0_18_41
*656 FILLER_0_18_53
*657 FILLER_0_18_65
*658 FILLER_0_18_77
*659 FILLER_0_18_83
*660 FILLER_0_18_85
*661 FILLER_0_18_97
*662 FILLER_0_19_105
*663 FILLER_0_19_111
*664 FILLER_0_19_113
*665 FILLER_0_19_125
*666 FILLER_0_19_137
*667 FILLER_0_19_149
*668 FILLER_0_19_15
*669 FILLER_0_19_161
*670 FILLER_0_19_167
*671 FILLER_0_19_169
*672 FILLER_0_19_181
*673 FILLER_0_19_193
*674 FILLER_0_19_205
*675 FILLER_0_19_217
*676 FILLER_0_19_223
*677 FILLER_0_19_225
*678 FILLER_0_19_237
*679 FILLER_0_19_249
*680 FILLER_0_19_261
*681 FILLER_0_19_27
*682 FILLER_0_19_273
*683 FILLER_0_19_279
*684 FILLER_0_19_281
*685 FILLER_0_19_293
*686 FILLER_0_19_3
*687 FILLER_0_19_305
*688 FILLER_0_19_317
*689 FILLER_0_19_329
*690 FILLER_0_19_39
*691 FILLER_0_19_51
*692 FILLER_0_19_55
*693 FILLER_0_19_57
*694 FILLER_0_19_69
*695 FILLER_0_19_81
*696 FILLER_0_19_93
*697 FILLER_0_1_105
*698 FILLER_0_1_111
*699 FILLER_0_1_113
*700 FILLER_0_1_125
*701 FILLER_0_1_137
*702 FILLER_0_1_149
*703 FILLER_0_1_15
*704 FILLER_0_1_161
*705 FILLER_0_1_167
*706 FILLER_0_1_169
*707 FILLER_0_1_181
*708 FILLER_0_1_193
*709 FILLER_0_1_205
*710 FILLER_0_1_217
*711 FILLER_0_1_223
*712 FILLER_0_1_225
*713 FILLER_0_1_237
*714 FILLER_0_1_249
*715 FILLER_0_1_261
*716 FILLER_0_1_27
*717 FILLER_0_1_273
*718 FILLER_0_1_279
*719 FILLER_0_1_281
*720 FILLER_0_1_293
*721 FILLER_0_1_3
*722 FILLER_0_1_305
*723 FILLER_0_1_317
*724 FILLER_0_1_329
*725 FILLER_0_1_39
*726 FILLER_0_1_51
*727 FILLER_0_1_55
*728 FILLER_0_1_57
*729 FILLER_0_1_69
*730 FILLER_0_1_81
*731 FILLER_0_1_93
*732 FILLER_0_20_109
*733 FILLER_0_20_121
*734 FILLER_0_20_133
*735 FILLER_0_20_139
*736 FILLER_0_20_141
*737 FILLER_0_20_15
*738 FILLER_0_20_153
*739 FILLER_0_20_165
*740 FILLER_0_20_177
*741 FILLER_0_20_189
*742 FILLER_0_20_195
*743 FILLER_0_20_197
*744 FILLER_0_20_209
*745 FILLER_0_20_221
*746 FILLER_0_20_233
*747 FILLER_0_20_245
*748 FILLER_0_20_251
*749 FILLER_0_20_253
*750 FILLER_0_20_265
*751 FILLER_0_20_27
*752 FILLER_0_20_277
*753 FILLER_0_20_289
*754 FILLER_0_20_29
*755 FILLER_0_20_3
*756 FILLER_0_20_301
*757 FILLER_0_20_307
*758 FILLER_0_20_309
*759 FILLER_0_20_321
*760 FILLER_0_20_333
*761 FILLER_0_20_41
*762 FILLER_0_20_53
*763 FILLER_0_20_65
*764 FILLER_0_20_77
*765 FILLER_0_20_83
*766 FILLER_0_20_85
*767 FILLER_0_20_97
*768 FILLER_0_21_105
*769 FILLER_0_21_111
*770 FILLER_0_21_113
*771 FILLER_0_21_125
*772 FILLER_0_21_137
*773 FILLER_0_21_149
*774 FILLER_0_21_15
*775 FILLER_0_21_161
*776 FILLER_0_21_167
*777 FILLER_0_21_169
*778 FILLER_0_21_181
*779 FILLER_0_21_193
*780 FILLER_0_21_205
*781 FILLER_0_21_217
*782 FILLER_0_21_223
*783 FILLER_0_21_225
*784 FILLER_0_21_237
*785 FILLER_0_21_249
*786 FILLER_0_21_261
*787 FILLER_0_21_27
*788 FILLER_0_21_273
*789 FILLER_0_21_279
*790 FILLER_0_21_281
*791 FILLER_0_21_293
*792 FILLER_0_21_3
*793 FILLER_0_21_305
*794 FILLER_0_21_317
*795 FILLER_0_21_329
*796 FILLER_0_21_39
*797 FILLER_0_21_51
*798 FILLER_0_21_55
*799 FILLER_0_21_57
*800 FILLER_0_21_69
*801 FILLER_0_21_81
*802 FILLER_0_21_93
*803 FILLER_0_22_109
*804 FILLER_0_22_121
*805 FILLER_0_22_133
*806 FILLER_0_22_139
*807 FILLER_0_22_141
*808 FILLER_0_22_15
*809 FILLER_0_22_153
*810 FILLER_0_22_165
*811 FILLER_0_22_177
*812 FILLER_0_22_181
*813 FILLER_0_22_193
*814 FILLER_0_22_197
*815 FILLER_0_22_201
*816 FILLER_0_22_213
*817 FILLER_0_22_225
*818 FILLER_0_22_249
*819 FILLER_0_22_269
*820 FILLER_0_22_27
*821 FILLER_0_22_288
*822 FILLER_0_22_29
*823 FILLER_0_22_3
*824 FILLER_0_22_309
*825 FILLER_0_22_321
*826 FILLER_0_22_333
*827 FILLER_0_22_41
*828 FILLER_0_22_53
*829 FILLER_0_22_65
*830 FILLER_0_22_77
*831 FILLER_0_22_83
*832 FILLER_0_22_85
*833 FILLER_0_22_97
*834 FILLER_0_23_105
*835 FILLER_0_23_111
*836 FILLER_0_23_113
*837 FILLER_0_23_125
*838 FILLER_0_23_137
*839 FILLER_0_23_149
*840 FILLER_0_23_15
*841 FILLER_0_23_161
*842 FILLER_0_23_167
*843 FILLER_0_23_169
*844 FILLER_0_23_189
*845 FILLER_0_23_212
*846 FILLER_0_23_241
*847 FILLER_0_23_251
*848 FILLER_0_23_268
*849 FILLER_0_23_27
*850 FILLER_0_23_289
*851 FILLER_0_23_3
*852 FILLER_0_23_300
*853 FILLER_0_23_319
*854 FILLER_0_23_331
*855 FILLER_0_23_39
*856 FILLER_0_23_51
*857 FILLER_0_23_55
*858 FILLER_0_23_57
*859 FILLER_0_23_69
*860 FILLER_0_23_81
*861 FILLER_0_23_93
*862 FILLER_0_24_109
*863 FILLER_0_24_121
*864 FILLER_0_24_133
*865 FILLER_0_24_139
*866 FILLER_0_24_141
*867 FILLER_0_24_15
*868 FILLER_0_24_153
*869 FILLER_0_24_157
*870 FILLER_0_24_174
*871 FILLER_0_24_179
*872 FILLER_0_24_184
*873 FILLER_0_24_193
*874 FILLER_0_24_202
*875 FILLER_0_24_214
*876 FILLER_0_24_226
*877 FILLER_0_24_251
*878 FILLER_0_24_267
*879 FILLER_0_24_27
*880 FILLER_0_24_275
*881 FILLER_0_24_281
*882 FILLER_0_24_287
*883 FILLER_0_24_29
*884 FILLER_0_24_292
*885 FILLER_0_24_3
*886 FILLER_0_24_302
*887 FILLER_0_24_331
*888 FILLER_0_24_41
*889 FILLER_0_24_53
*890 FILLER_0_24_65
*891 FILLER_0_24_77
*892 FILLER_0_24_83
*893 FILLER_0_24_85
*894 FILLER_0_24_97
*895 FILLER_0_25_105
*896 FILLER_0_25_111
*897 FILLER_0_25_113
*898 FILLER_0_25_125
*899 FILLER_0_25_137
*900 FILLER_0_25_149
*901 FILLER_0_25_15
*902 FILLER_0_25_161
*903 FILLER_0_25_167
*904 FILLER_0_25_187
*905 FILLER_0_25_225
*906 FILLER_0_25_231
*907 FILLER_0_25_240
*908 FILLER_0_25_252
*909 FILLER_0_25_264
*910 FILLER_0_25_27
*911 FILLER_0_25_276
*912 FILLER_0_25_294
*913 FILLER_0_25_3
*914 FILLER_0_25_314
*915 FILLER_0_25_323
*916 FILLER_0_25_39
*917 FILLER_0_25_51
*918 FILLER_0_25_55
*919 FILLER_0_25_57
*920 FILLER_0_25_69
*921 FILLER_0_25_81
*922 FILLER_0_25_93
*923 FILLER_0_26_109
*924 FILLER_0_26_121
*925 FILLER_0_26_133
*926 FILLER_0_26_139
*927 FILLER_0_26_141
*928 FILLER_0_26_15
*929 FILLER_0_26_153
*930 FILLER_0_26_165
*931 FILLER_0_26_171
*932 FILLER_0_26_176
*933 FILLER_0_26_188
*934 FILLER_0_26_197
*935 FILLER_0_26_209
*936 FILLER_0_26_213
*937 FILLER_0_26_225
*938 FILLER_0_26_237
*939 FILLER_0_26_245
*940 FILLER_0_26_250
*941 FILLER_0_26_27
*942 FILLER_0_26_277
*943 FILLER_0_26_281
*944 FILLER_0_26_29
*945 FILLER_0_26_3
*946 FILLER_0_26_306
*947 FILLER_0_26_309
*948 FILLER_0_26_318
*949 FILLER_0_26_41
*950 FILLER_0_26_53
*951 FILLER_0_26_65
*952 FILLER_0_26_77
*953 FILLER_0_26_83
*954 FILLER_0_26_85
*955 FILLER_0_26_97
*956 FILLER_0_27_105
*957 FILLER_0_27_111
*958 FILLER_0_27_113
*959 FILLER_0_27_125
*960 FILLER_0_27_137
*961 FILLER_0_27_149
*962 FILLER_0_27_15
*963 FILLER_0_27_169
*964 FILLER_0_27_184
*965 FILLER_0_27_193
*966 FILLER_0_27_249
*967 FILLER_0_27_27
*968 FILLER_0_27_275
*969 FILLER_0_27_279
*970 FILLER_0_27_281
*971 FILLER_0_27_3
*972 FILLER_0_27_309
*973 FILLER_0_27_313
*974 FILLER_0_27_317
*975 FILLER_0_27_333
*976 FILLER_0_27_39
*977 FILLER_0_27_51
*978 FILLER_0_27_55
*979 FILLER_0_27_57
*980 FILLER_0_27_69
*981 FILLER_0_27_81
*982 FILLER_0_27_93
*983 FILLER_0_28_109
*984 FILLER_0_28_121
*985 FILLER_0_28_133
*986 FILLER_0_28_139
*987 FILLER_0_28_141
*988 FILLER_0_28_15
*989 FILLER_0_28_153
*990 FILLER_0_28_181
*991 FILLER_0_28_187
*992 FILLER_0_28_205
*993 FILLER_0_28_223
*994 FILLER_0_28_235
*995 FILLER_0_28_241
*996 FILLER_0_28_245
*997 FILLER_0_28_253
*998 FILLER_0_28_262
*999 FILLER_0_28_27
*1000 FILLER_0_28_277
*1001 FILLER_0_28_289
*1002 FILLER_0_28_29
*1003 FILLER_0_28_3
*1004 FILLER_0_28_301
*1005 FILLER_0_28_307
*1006 FILLER_0_28_334
*1007 FILLER_0_28_41
*1008 FILLER_0_28_53
*1009 FILLER_0_28_65
*1010 FILLER_0_28_77
*1011 FILLER_0_28_83
*1012 FILLER_0_28_85
*1013 FILLER_0_28_97
*1014 FILLER_0_29_105
*1015 FILLER_0_29_111
*1016 FILLER_0_29_113
*1017 FILLER_0_29_125
*1018 FILLER_0_29_137
*1019 FILLER_0_29_149
*1020 FILLER_0_29_15
*1021 FILLER_0_29_161
*1022 FILLER_0_29_167
*1023 FILLER_0_29_169
*1024 FILLER_0_29_181
*1025 FILLER_0_29_189
*1026 FILLER_0_29_203
*1027 FILLER_0_29_214
*1028 FILLER_0_29_225
*1029 FILLER_0_29_27
*1030 FILLER_0_29_281
*1031 FILLER_0_29_3
*1032 FILLER_0_29_315
*1033 FILLER_0_29_327
*1034 FILLER_0_29_39
*1035 FILLER_0_29_51
*1036 FILLER_0_29_55
*1037 FILLER_0_29_57
*1038 FILLER_0_29_69
*1039 FILLER_0_29_81
*1040 FILLER_0_29_93
*1041 FILLER_0_2_109
*1042 FILLER_0_2_121
*1043 FILLER_0_2_133
*1044 FILLER_0_2_139
*1045 FILLER_0_2_141
*1046 FILLER_0_2_15
*1047 FILLER_0_2_153
*1048 FILLER_0_2_165
*1049 FILLER_0_2_177
*1050 FILLER_0_2_189
*1051 FILLER_0_2_195
*1052 FILLER_0_2_197
*1053 FILLER_0_2_209
*1054 FILLER_0_2_221
*1055 FILLER_0_2_233
*1056 FILLER_0_2_245
*1057 FILLER_0_2_251
*1058 FILLER_0_2_253
*1059 FILLER_0_2_265
*1060 FILLER_0_2_27
*1061 FILLER_0_2_277
*1062 FILLER_0_2_289
*1063 FILLER_0_2_29
*1064 FILLER_0_2_3
*1065 FILLER_0_2_301
*1066 FILLER_0_2_307
*1067 FILLER_0_2_309
*1068 FILLER_0_2_321
*1069 FILLER_0_2_333
*1070 FILLER_0_2_41
*1071 FILLER_0_2_53
*1072 FILLER_0_2_65
*1073 FILLER_0_2_77
*1074 FILLER_0_2_83
*1075 FILLER_0_2_85
*1076 FILLER_0_2_97
*1077 FILLER_0_30_109
*1078 FILLER_0_30_121
*1079 FILLER_0_30_133
*1080 FILLER_0_30_139
*1081 FILLER_0_30_141
*1082 FILLER_0_30_15
*1083 FILLER_0_30_153
*1084 FILLER_0_30_159
*1085 FILLER_0_30_204
*1086 FILLER_0_30_212
*1087 FILLER_0_30_219
*1088 FILLER_0_30_227
*1089 FILLER_0_30_238
*1090 FILLER_0_30_27
*1091 FILLER_0_30_273
*1092 FILLER_0_30_285
*1093 FILLER_0_30_29
*1094 FILLER_0_30_297
*1095 FILLER_0_30_3
*1096 FILLER_0_30_302
*1097 FILLER_0_30_317
*1098 FILLER_0_30_41
*1099 FILLER_0_30_53
*1100 FILLER_0_30_65
*1101 FILLER_0_30_77
*1102 FILLER_0_30_83
*1103 FILLER_0_30_85
*1104 FILLER_0_30_97
*1105 FILLER_0_31_105
*1106 FILLER_0_31_111
*1107 FILLER_0_31_113
*1108 FILLER_0_31_125
*1109 FILLER_0_31_137
*1110 FILLER_0_31_149
*1111 FILLER_0_31_15
*1112 FILLER_0_31_161
*1113 FILLER_0_31_167
*1114 FILLER_0_31_169
*1115 FILLER_0_31_177
*1116 FILLER_0_31_191
*1117 FILLER_0_31_202
*1118 FILLER_0_31_211
*1119 FILLER_0_31_218
*1120 FILLER_0_31_225
*1121 FILLER_0_31_231
*1122 FILLER_0_31_255
*1123 FILLER_0_31_27
*1124 FILLER_0_31_271
*1125 FILLER_0_31_281
*1126 FILLER_0_31_291
*1127 FILLER_0_31_295
*1128 FILLER_0_31_3
*1129 FILLER_0_31_304
*1130 FILLER_0_31_309
*1131 FILLER_0_31_332
*1132 FILLER_0_31_39
*1133 FILLER_0_31_51
*1134 FILLER_0_31_55
*1135 FILLER_0_31_57
*1136 FILLER_0_31_69
*1137 FILLER_0_31_81
*1138 FILLER_0_31_93
*1139 FILLER_0_32_109
*1140 FILLER_0_32_121
*1141 FILLER_0_32_133
*1142 FILLER_0_32_139
*1143 FILLER_0_32_141
*1144 FILLER_0_32_15
*1145 FILLER_0_32_153
*1146 FILLER_0_32_165
*1147 FILLER_0_32_173
*1148 FILLER_0_32_205
*1149 FILLER_0_32_245
*1150 FILLER_0_32_251
*1151 FILLER_0_32_258
*1152 FILLER_0_32_269
*1153 FILLER_0_32_27
*1154 FILLER_0_32_287
*1155 FILLER_0_32_29
*1156 FILLER_0_32_3
*1157 FILLER_0_32_323
*1158 FILLER_0_32_41
*1159 FILLER_0_32_53
*1160 FILLER_0_32_65
*1161 FILLER_0_32_77
*1162 FILLER_0_32_83
*1163 FILLER_0_32_85
*1164 FILLER_0_32_97
*1165 FILLER_0_33_105
*1166 FILLER_0_33_111
*1167 FILLER_0_33_113
*1168 FILLER_0_33_125
*1169 FILLER_0_33_137
*1170 FILLER_0_33_149
*1171 FILLER_0_33_15
*1172 FILLER_0_33_161
*1173 FILLER_0_33_167
*1174 FILLER_0_33_169
*1175 FILLER_0_33_181
*1176 FILLER_0_33_209
*1177 FILLER_0_33_221
*1178 FILLER_0_33_225
*1179 FILLER_0_33_251
*1180 FILLER_0_33_269
*1181 FILLER_0_33_27
*1182 FILLER_0_33_277
*1183 FILLER_0_33_281
*1184 FILLER_0_33_289
*1185 FILLER_0_33_293
*1186 FILLER_0_33_3
*1187 FILLER_0_33_306
*1188 FILLER_0_33_318
*1189 FILLER_0_33_39
*1190 FILLER_0_33_51
*1191 FILLER_0_33_55
*1192 FILLER_0_33_57
*1193 FILLER_0_33_69
*1194 FILLER_0_33_81
*1195 FILLER_0_33_93
*1196 FILLER_0_34_109
*1197 FILLER_0_34_121
*1198 FILLER_0_34_133
*1199 FILLER_0_34_139
*1200 FILLER_0_34_141
*1201 FILLER_0_34_149
*1202 FILLER_0_34_15
*1203 FILLER_0_34_154
*1204 FILLER_0_34_158
*1205 FILLER_0_34_166
*1206 FILLER_0_34_172
*1207 FILLER_0_34_188
*1208 FILLER_0_34_197
*1209 FILLER_0_34_203
*1210 FILLER_0_34_223
*1211 FILLER_0_34_233
*1212 FILLER_0_34_241
*1213 FILLER_0_34_247
*1214 FILLER_0_34_253
*1215 FILLER_0_34_27
*1216 FILLER_0_34_270
*1217 FILLER_0_34_274
*1218 FILLER_0_34_279
*1219 FILLER_0_34_29
*1220 FILLER_0_34_298
*1221 FILLER_0_34_3
*1222 FILLER_0_34_325
*1223 FILLER_0_34_333
*1224 FILLER_0_34_41
*1225 FILLER_0_34_53
*1226 FILLER_0_34_65
*1227 FILLER_0_34_77
*1228 FILLER_0_34_83
*1229 FILLER_0_34_85
*1230 FILLER_0_34_97
*1231 FILLER_0_35_105
*1232 FILLER_0_35_111
*1233 FILLER_0_35_113
*1234 FILLER_0_35_125
*1235 FILLER_0_35_129
*1236 FILLER_0_35_142
*1237 FILLER_0_35_15
*1238 FILLER_0_35_158
*1239 FILLER_0_35_169
*1240 FILLER_0_35_181
*1241 FILLER_0_35_191
*1242 FILLER_0_35_203
*1243 FILLER_0_35_214
*1244 FILLER_0_35_222
*1245 FILLER_0_35_233
*1246 FILLER_0_35_239
*1247 FILLER_0_35_246
*1248 FILLER_0_35_254
*1249 FILLER_0_35_266
*1250 FILLER_0_35_27
*1251 FILLER_0_35_281
*1252 FILLER_0_35_285
*1253 FILLER_0_35_294
*1254 FILLER_0_35_3
*1255 FILLER_0_35_313
*1256 FILLER_0_35_317
*1257 FILLER_0_35_332
*1258 FILLER_0_35_39
*1259 FILLER_0_35_51
*1260 FILLER_0_35_55
*1261 FILLER_0_35_57
*1262 FILLER_0_35_69
*1263 FILLER_0_35_81
*1264 FILLER_0_35_93
*1265 FILLER_0_36_109
*1266 FILLER_0_36_121
*1267 FILLER_0_36_136
*1268 FILLER_0_36_141
*1269 FILLER_0_36_15
*1270 FILLER_0_36_153
*1271 FILLER_0_36_165
*1272 FILLER_0_36_177
*1273 FILLER_0_36_195
*1274 FILLER_0_36_207
*1275 FILLER_0_36_213
*1276 FILLER_0_36_218
*1277 FILLER_0_36_232
*1278 FILLER_0_36_253
*1279 FILLER_0_36_262
*1280 FILLER_0_36_27
*1281 FILLER_0_36_270
*1282 FILLER_0_36_287
*1283 FILLER_0_36_29
*1284 FILLER_0_36_291
*1285 FILLER_0_36_3
*1286 FILLER_0_36_317
*1287 FILLER_0_36_321
*1288 FILLER_0_36_328
*1289 FILLER_0_36_334
*1290 FILLER_0_36_41
*1291 FILLER_0_36_53
*1292 FILLER_0_36_65
*1293 FILLER_0_36_77
*1294 FILLER_0_36_83
*1295 FILLER_0_36_85
*1296 FILLER_0_36_97
*1297 FILLER_0_37_105
*1298 FILLER_0_37_111
*1299 FILLER_0_37_113
*1300 FILLER_0_37_125
*1301 FILLER_0_37_143
*1302 FILLER_0_37_15
*1303 FILLER_0_37_161
*1304 FILLER_0_37_166
*1305 FILLER_0_37_182
*1306 FILLER_0_37_190
*1307 FILLER_0_37_201
*1308 FILLER_0_37_205
*1309 FILLER_0_37_217
*1310 FILLER_0_37_223
*1311 FILLER_0_37_229
*1312 FILLER_0_37_241
*1313 FILLER_0_37_249
*1314 FILLER_0_37_261
*1315 FILLER_0_37_27