*SPEF "ieee 1481-1999"
*DESIGN "tt_um_njp_micro"
*DATE "17:04:45 Thursday May 30, 2024"
*VENDOR "The OpenROAD Project"
*PROGRAM "OpenROAD"
*VERSION "da0053d7b0014ab9c87ea148875ff6c2a0f9b658"
*DESIGN_FLOW "NAME_SCOPE LOCAL" "PIN_CAP NONE"
*DIVIDER /
*DELIMITER :
*BUS_DELIMITER []
*T_UNIT 1 NS
*C_UNIT 1 PF
*R_UNIT 1 OHM
*L_UNIT 1 HENRY

*NAME_MAP
*3 clk
*4 ena
*5 rst_n
*6 ui_in[0]
*7 ui_in[1]
*8 ui_in[2]
*9 ui_in[3]
*10 ui_in[4]
*11 ui_in[5]
*12 ui_in[6]
*13 ui_in[7]
*14 uio_in[0]
*15 uio_in[1]
*16 uio_in[2]
*17 uio_in[3]
*18 uio_in[4]
*19 uio_in[5]
*20 uio_in[6]
*21 uio_in[7]
*22 net10
*23 net11
*24 net12
*25 net13
*26 net14
*27 net15
*28 net16
*29 net17
*30 net18
*31 net19
*32 net20
*33 net21
*34 net22
*35 net23
*36 net24
*37 net25
*38 uo_out[0]
*39 uo_out[1]
*40 uo_out[2]
*41 uo_out[3]
*42 uo_out[4]
*43 uo_out[5]
*44 uo_out[6]
*45 uo_out[7]
*46 P1\.P1\.T0
*47 P1\.P1\.T1
*48 P1\.P1\.T2
*49 P1\.P1\.T3
*50 P1\.P2\.cnt\[0\]
*51 P1\.P2\.cnt\[1\]
*52 P1\.P2\.cnt\[2\]
*53 P1\.P2\.cnt\[3\]
*54 P1\.P2\.cnt\[4\]
*55 P1\.P4\.data_out\[0\]
*56 P1\.P4\.data_out\[1\]
*57 P1\.P4\.data_out\[2\]
*58 P1\.P4\.data_out\[3\]
*59 P1\.P5\.flag
*60 P2\.ABMux\.A\[0\]
*61 P2\.ABMux\.A\[1\]
*62 P2\.ABMux\.A\[2\]
*63 P2\.ABMux\.A\[3\]
*64 P2\.ABMux\.B\[0\]
*65 P2\.ABMux\.B\[1\]
*66 P2\.ABMux\.B\[2\]
*67 P2\.ABMux\.B\[3\]
*68 P2\.ACC_Reg\.data_out\[0\]
*69 P2\.ACC_Reg\.data_out\[1\]
*70 P2\.ACC_Reg\.data_out\[2\]
*71 P2\.ACC_Reg\.data_out\[3\]
*72 P2\.ACC_Reg\.data_out\[4\]
*73 P2\.ACC_Reg\.data_out\[5\]
*74 P2\.ACC_Reg\.data_out\[6\]
*75 P2\.ACC_Reg\.data_out\[7\]
*76 P2\.Shifter\.srdata_out\[0\]
*77 P2\.Shifter\.srdata_out\[1\]
*78 P2\.Shifter\.srdata_out\[2\]
*79 P2\.Shifter\.srdata_out\[3\]
*80 P2\.Shifter\.srdata_out\[4\]
*81 P2\.Shifter\.srdata_out\[5\]
*82 P2\.Shifter\.srdata_out\[6\]
*83 P2\.Shifter\.srdata_out\[7\]
*84 _000_
*85 _001_
*86 _002_
*87 _003_
*88 _004_
*89 _005_
*90 _006_
*91 _007_
*92 _008_
*93 _009_
*94 _010_
*95 _011_
*96 _012_
*97 _013_
*98 _014_
*99 _015_
*100 _016_
*101 _017_
*102 _018_
*103 _019_
*104 _020_
*105 _021_
*106 _022_
*107 _023_
*108 _024_
*109 _025_
*110 _026_
*111 _027_
*112 _028_
*113 _029_
*114 _030_
*115 _031_
*116 _032_
*117 _033_
*118 _034_
*119 _035_
*120 _036_
*121 _037_
*122 _038_
*123 _039_
*124 _040_
*125 _041_
*126 _042_
*127 _043_
*128 _044_
*129 _045_
*130 _046_
*131 _047_
*132 _048_
*133 _049_
*134 _050_
*135 _051_
*136 _052_
*137 _053_
*138 _054_
*139 _055_
*140 _056_
*141 _057_
*142 _058_
*143 _059_
*144 _060_
*145 _061_
*146 _062_
*147 _063_
*148 _064_
*149 _065_
*150 _066_
*151 _067_
*152 _068_
*153 _069_
*154 _070_
*155 _071_
*156 _072_
*157 _073_
*158 _074_
*159 _075_
*160 _076_
*161 _077_
*162 _078_
*163 _079_
*164 _080_
*165 _081_
*166 _082_
*167 _083_
*168 _084_
*169 _085_
*170 _086_
*171 _087_
*172 _088_
*173 _089_
*174 _090_
*175 _091_
*176 _092_
*177 _093_
*178 _094_
*179 _095_
*180 _096_
*181 _097_
*182 _098_
*183 _099_
*184 _100_
*185 _101_
*186 _102_
*187 _103_
*188 _104_
*189 _105_
*190 _106_
*191 _107_
*192 _108_
*193 _109_
*194 _110_
*195 _111_
*196 _112_
*197 _113_
*198 _114_
*199 _115_
*200 _116_
*201 _117_
*202 _118_
*203 _119_
*204 _120_
*205 _121_
*206 _122_
*207 _123_
*208 _124_
*209 _125_
*210 _126_
*211 _127_
*212 _128_
*213 _129_
*214 _130_
*215 _131_
*216 _132_
*217 _133_
*218 _134_
*219 _135_
*220 _136_
*221 _137_
*222 _138_
*223 _139_
*224 _140_
*225 _141_
*226 _142_
*227 _143_
*228 _144_
*229 _145_
*230 _146_
*231 _147_
*232 _148_
*233 _149_
*234 _150_
*235 _151_
*236 _152_
*237 _153_
*238 _154_
*239 _155_
*240 _156_
*241 _157_
*242 _158_
*243 _159_
*244 _160_
*245 _161_
*246 _162_
*247 _163_
*248 _164_
*249 _165_
*250 _166_
*251 _167_
*252 _168_
*253 _169_
*254 _170_
*255 _171_
*256 _172_
*257 _173_
*258 _174_
*259 _175_
*260 _176_
*261 _177_
*262 _178_
*263 _179_
*264 _180_
*265 _181_
*266 _182_
*267 _183_
*268 _184_
*269 _185_
*270 _186_
*271 _187_
*272 _188_
*273 _189_
*274 _190_
*275 _191_
*276 _192_
*277 _193_
*278 _194_
*279 _195_
*280 _196_
*281 _197_
*282 _198_
*283 _199_
*284 _200_
*285 _201_
*286 _202_
*287 _203_
*288 _204_
*289 _205_
*290 _206_
*291 _207_
*292 _208_
*293 _209_
*294 _210_
*295 _211_
*296 _212_
*297 _213_
*298 _214_
*299 _215_
*300 _216_
*301 _217_
*302 _218_
*303 _219_
*304 _220_
*305 _221_
*306 _222_
*307 _223_
*308 _224_
*309 _225_
*310 _226_
*311 _227_
*312 _228_
*313 _229_
*314 clknet_0_clk
*315 clknet_2_0__leaf_clk
*316 clknet_2_1__leaf_clk
*317 clknet_2_2__leaf_clk
*318 clknet_2_3__leaf_clk
*319 net1
*320 net2
*321 net26
*322 net27
*323 net28
*324 net29
*325 net3
*326 net30
*327 net31
*328 net32
*329 net33
*330 net34
*331 net35
*332 net36
*333 net37
*334 net38
*335 net39
*336 net4
*337 net40
*338 net41
*339 net42
*340 net43
*341 net44
*342 net45
*343 net46
*344 net47
*345 net48
*346 net49
*347 net5
*348 net50
*349 net6
*350 net7
*351 net8
*352 net9
*353 FILLER_0_0_109
*354 FILLER_0_0_113
*355 FILLER_0_0_125
*356 FILLER_0_0_137
*357 FILLER_0_0_141
*358 FILLER_0_0_15
*359 FILLER_0_0_153
*360 FILLER_0_0_165
*361 FILLER_0_0_169
*362 FILLER_0_0_181
*363 FILLER_0_0_193
*364 FILLER_0_0_197
*365 FILLER_0_0_209
*366 FILLER_0_0_221
*367 FILLER_0_0_225
*368 FILLER_0_0_237
*369 FILLER_0_0_249
*370 FILLER_0_0_253
*371 FILLER_0_0_265
*372 FILLER_0_0_27
*373 FILLER_0_0_277
*374 FILLER_0_0_281
*375 FILLER_0_0_29
*376 FILLER_0_0_293
*377 FILLER_0_0_3
*378 FILLER_0_0_305
*379 FILLER_0_0_309
*380 FILLER_0_0_321
*381 FILLER_0_0_333
*382 FILLER_0_0_41
*383 FILLER_0_0_53
*384 FILLER_0_0_57
*385 FILLER_0_0_69
*386 FILLER_0_0_81
*387 FILLER_0_0_85
*388 FILLER_0_0_97
*389 FILLER_0_10_109
*390 FILLER_0_10_121
*391 FILLER_0_10_133
*392 FILLER_0_10_139
*393 FILLER_0_10_141
*394 FILLER_0_10_15
*395 FILLER_0_10_153
*396 FILLER_0_10_165
*397 FILLER_0_10_177
*398 FILLER_0_10_189
*399 FILLER_0_10_195
*400 FILLER_0_10_197
*401 FILLER_0_10_209
*402 FILLER_0_10_221
*403 FILLER_0_10_233
*404 FILLER_0_10_245
*405 FILLER_0_10_251
*406 FILLER_0_10_253
*407 FILLER_0_10_265
*408 FILLER_0_10_27
*409 FILLER_0_10_277
*410 FILLER_0_10_289
*411 FILLER_0_10_29
*412 FILLER_0_10_3
*413 FILLER_0_10_301
*414 FILLER_0_10_307
*415 FILLER_0_10_309
*416 FILLER_0_10_321
*417 FILLER_0_10_333
*418 FILLER_0_10_41
*419 FILLER_0_10_53
*420 FILLER_0_10_65
*421 FILLER_0_10_77
*422 FILLER_0_10_83
*423 FILLER_0_10_85
*424 FILLER_0_10_97
*425 FILLER_0_11_105
*426 FILLER_0_11_111
*427 FILLER_0_11_113
*428 FILLER_0_11_125
*429 FILLER_0_11_137
*430 FILLER_0_11_149
*431 FILLER_0_11_15
*432 FILLER_0_11_161
*433 FILLER_0_11_167
*434 FILLER_0_11_169
*435 FILLER_0_11_181
*436 FILLER_0_11_193
*437 FILLER_0_11_205
*438 FILLER_0_11_217
*439 FILLER_0_11_223
*440 FILLER_0_11_225
*441 FILLER_0_11_237
*442 FILLER_0_11_249
*443 FILLER_0_11_261
*444 FILLER_0_11_27
*445 FILLER_0_11_273
*446 FILLER_0_11_279
*447 FILLER_0_11_281
*448 FILLER_0_11_293
*449 FILLER_0_11_3
*450 FILLER_0_11_305
*451 FILLER_0_11_317
*452 FILLER_0_11_329
*453 FILLER_0_11_39
*454 FILLER_0_11_51
*455 FILLER_0_11_55
*456 FILLER_0_11_57
*457 FILLER_0_11_69
*458 FILLER_0_11_81
*459 FILLER_0_11_93
*460 FILLER_0_12_109
*461 FILLER_0_12_121
*462 FILLER_0_12_133
*463 FILLER_0_12_139
*464 FILLER_0_12_141
*465 FILLER_0_12_15
*466 FILLER_0_12_153
*467 FILLER_0_12_165
*468 FILLER_0_12_177
*469 FILLER_0_12_189
*470 FILLER_0_12_195
*471 FILLER_0_12_197
*472 FILLER_0_12_209
*473 FILLER_0_12_221
*474 FILLER_0_12_233
*475 FILLER_0_12_245
*476 FILLER_0_12_251
*477 FILLER_0_12_253
*478 FILLER_0_12_265
*479 FILLER_0_12_27
*480 FILLER_0_12_277
*481 FILLER_0_12_289
*482 FILLER_0_12_29
*483 FILLER_0_12_3
*484 FILLER_0_12_301
*485 FILLER_0_12_307
*486 FILLER_0_12_309
*487 FILLER_0_12_321
*488 FILLER_0_12_333
*489 FILLER_0_12_41
*490 FILLER_0_12_53
*491 FILLER_0_12_65
*492 FILLER_0_12_77
*493 FILLER_0_12_83
*494 FILLER_0_12_85
*495 FILLER_0_12_97
*496 FILLER_0_13_105
*497 FILLER_0_13_111
*498 FILLER_0_13_113
*499 FILLER_0_13_125
*500 FILLER_0_13_137
*501 FILLER_0_13_149
*502 FILLER_0_13_15
*503 FILLER_0_13_161
*504 FILLER_0_13_167
*505 FILLER_0_13_169
*506 FILLER_0_13_181
*507 FILLER_0_13_193
*508 FILLER_0_13_205
*509 FILLER_0_13_217
*510 FILLER_0_13_223
*511 FILLER_0_13_225
*512 FILLER_0_13_237
*513 FILLER_0_13_249
*514 FILLER_0_13_261
*515 FILLER_0_13_27
*516 FILLER_0_13_273
*517 FILLER_0_13_279
*518 FILLER_0_13_281
*519 FILLER_0_13_293
*520 FILLER_0_13_3
*521 FILLER_0_13_305
*522 FILLER_0_13_317
*523 FILLER_0_13_329
*524 FILLER_0_13_39
*525 FILLER_0_13_51
*526 FILLER_0_13_55
*527 FILLER_0_13_57
*528 FILLER_0_13_69
*529 FILLER_0_13_81
*530 FILLER_0_13_93
*531 FILLER_0_14_109
*532 FILLER_0_14_121
*533 FILLER_0_14_133
*534 FILLER_0_14_139
*535 FILLER_0_14_141
*536 FILLER_0_14_15
*537 FILLER_0_14_153
*538 FILLER_0_14_165
*539 FILLER_0_14_177
*540 FILLER_0_14_189
*541 FILLER_0_14_195
*542 FILLER_0_14_197
*543 FILLER_0_14_209
*544 FILLER_0_14_221
*545 FILLER_0_14_233
*546 FILLER_0_14_245
*547 FILLER_0_14_251
*548 FILLER_0_14_253
*549 FILLER_0_14_265
*550 FILLER_0_14_27
*551 FILLER_0_14_277
*552 FILLER_0_14_289
*553 FILLER_0_14_29
*554 FILLER_0_14_3
*555 FILLER_0_14_301
*556 FILLER_0_14_307
*557 FILLER_0_14_309
*558 FILLER_0_14_321
*559 FILLER_0_14_333
*560 FILLER_0_14_41
*561 FILLER_0_14_53
*562 FILLER_0_14_65
*563 FILLER_0_14_77
*564 FILLER_0_14_83
*565 FILLER_0_14_85
*566 FILLER_0_14_97
*567 FILLER_0_15_105
*568 FILLER_0_15_111
*569 FILLER_0_15_113
*570 FILLER_0_15_125
*571 FILLER_0_15_137
*572 FILLER_0_15_149
*573 FILLER_0_15_15
*574 FILLER_0_15_161
*575 FILLER_0_15_167
*576 FILLER_0_15_169
*577 FILLER_0_15_181
*578 FILLER_0_15_193
*579 FILLER_0_15_205
*580 FILLER_0_15_217
*581 FILLER_0_15_223
*582 FILLER_0_15_225
*583 FILLER_0_15_237
*584 FILLER_0_15_249
*585 FILLER_0_15_261
*586 FILLER_0_15_27
*587 FILLER_0_15_273
*588 FILLER_0_15_279
*589 FILLER_0_15_281
*590 FILLER_0_15_293
*591 FILLER_0_15_3
*592 FILLER_0_15_305
*593 FILLER_0_15_317
*594 FILLER_0_15_329
*595 FILLER_0_15_39
*596 FILLER_0_15_51
*597 FILLER_0_15_55
*598 FILLER_0_15_57
*599 FILLER_0_15_69
*600 FILLER_0_15_81
*601 FILLER_0_15_93
*602 FILLER_0_16_109
*603 FILLER_0_16_121
*604 FILLER_0_16_133
*605 FILLER_0_16_139
*606 FILLER_0_16_141
*607 FILLER_0_16_15
*608 FILLER_0_16_153
*609 FILLER_0_16_165
*610 FILLER_0_16_177
*611 FILLER_0_16_189
*612 FILLER_0_16_195
*613 FILLER_0_16_197
*614 FILLER_0_16_209
*615 FILLER_0_16_221
*616 FILLER_0_16_233
*617 FILLER_0_16_245
*618 FILLER_0_16_251
*619 FILLER_0_16_253
*620 FILLER_0_16_265
*621 FILLER_0_16_27
*622 FILLER_0_16_277
*623 FILLER_0_16_289
*624 FILLER_0_16_29
*625 FILLER_0_16_3
*626 FILLER_0_16_301
*627 FILLER_0_16_307
*628 FILLER_0_16_309
*629 FILLER_0_16_321
*630 FILLER_0_16_333
*631 FILLER_0_16_41
*632 FILLER_0_16_53
*633 FILLER_0_16_65
*634 FILLER_0_16_77
*635 FILLER_0_16_83
*636 FILLER_0_16_85
*637 FILLER_0_16_97
*638 FILLER_0_17_105
*639 FILLER_0_17_111
*640 FILLER_0_17_113
*641 FILLER_0_17_125
*642 FILLER_0_17_137
*643 FILLER_0_17_149
*644 FILLER_0_17_15
*645 FILLER_0_17_161
*646 FILLER_0_17_167
*647 FILLER_0_17_169
*648 FILLER_0_17_181
*649 FILLER_0_17_193
*650 FILLER_0_17_205
*651 FILLER_0_17_217
*652 FILLER_0_17_223
*653 FILLER_0_17_225
*654 FILLER_0_17_237
*655 FILLER_0_17_249
*656 FILLER_0_17_261
*657 FILLER_0_17_27
*658 FILLER_0_17_273
*659 FILLER_0_17_279
*660 FILLER_0_17_281
*661 FILLER_0_17_293
*662 FILLER_0_17_3
*663 FILLER_0_17_305
*664 FILLER_0_17_317
*665 FILLER_0_17_329
*666 FILLER_0_17_39
*667 FILLER_0_17_51
*668 FILLER_0_17_55
*669 FILLER_0_17_57
*670 FILLER_0_17_69
*671 FILLER_0_17_81
*672 FILLER_0_17_93
*673 FILLER_0_18_109
*674 FILLER_0_18_121
*675 FILLER_0_18_133
*676 FILLER_0_18_139
*677 FILLER_0_18_141
*678 FILLER_0_18_15
*679 FILLER_0_18_153
*680 FILLER_0_18_165
*681 FILLER_0_18_177
*682 FILLER_0_18_189
*683 FILLER_0_18_195
*684 FILLER_0_18_197
*685 FILLER_0_18_209
*686 FILLER_0_18_221
*687 FILLER_0_18_233
*688 FILLER_0_18_245
*689 FILLER_0_18_251
*690 FILLER_0_18_253
*691 FILLER_0_18_265
*692 FILLER_0_18_27
*693 FILLER_0_18_277
*694 FILLER_0_18_289
*695 FILLER_0_18_29
*696 FILLER_0_18_3
*697 FILLER_0_18_301
*698 FILLER_0_18_307
*699 FILLER_0_18_309
*700 FILLER_0_18_321
*701 FILLER_0_18_333
*702 FILLER_0_18_41
*703 FILLER_0_18_53
*704 FILLER_0_18_65
*705 FILLER_0_18_77
*706 FILLER_0_18_83
*707 FILLER_0_18_85
*708 FILLER_0_18_97
*709 FILLER_0_19_105
*710 FILLER_0_19_111
*711 FILLER_0_19_113
*712 FILLER_0_19_125
*713 FILLER_0_19_137
*714 FILLER_0_19_149
*715 FILLER_0_19_15
*716 FILLER_0_19_161
*717 FILLER_0_19_167
*718 FILLER_0_19_169
*719 FILLER_0_19_181
*720 FILLER_0_19_193
*721 FILLER_0_19_205
*722 FILLER_0_19_217
*723 FILLER_0_19_223
*724 FILLER_0_19_225
*725 FILLER_0_19_237
*726 FILLER_0_19_249
*727 FILLER_0_19_261
*728 FILLER_0_19_27
*729 FILLER_0_19_273
*730 FILLER_0_19_279
*731 FILLER_0_19_281
*732 FILLER_0_19_293
*733 FILLER_0_19_3
*734 FILLER_0_19_305
*735 FILLER_0_19_317
*736 FILLER_0_19_329
*737 FILLER_0_19_39
*738 FILLER_0_19_51
*739 FILLER_0_19_55
*740 FILLER_0_19_57
*741 FILLER_0_19_69
*742 FILLER_0_19_81
*743 FILLER_0_19_93
*744 FILLER_0_1_105
*745 FILLER_0_1_111
*746 FILLER_0_1_113
*747 FILLER_0_1_125
*748 FILLER_0_1_137
*749 FILLER_0_1_149
*750 FILLER_0_1_15
*751 FILLER_0_1_161
*752 FILLER_0_1_167
*753 FILLER_0_1_169
*754 FILLER_0_1_181
*755 FILLER_0_1_193
*756 FILLER_0_1_205
*757 FILLER_0_1_217
*758 FILLER_0_1_223
*759 FILLER_0_1_225
*760 FILLER_0_1_237
*761 FILLER_0_1_249
*762 FILLER_0_1_261
*763 FILLER_0_1_27
*764 FILLER_0_1_273
*765 FILLER_0_1_279
*766 FILLER_0_1_281
*767 FILLER_0_1_293
*768 FILLER_0_1_3
*769 FILLER_0_1_305
*770 FILLER_0_1_317
*771 FILLER_0_1_329
*772 FILLER_0_1_39
*773 FILLER_0_1_51
*774 FILLER_0_1_55
*775 FILLER_0_1_57
*776 FILLER_0_1_69
*777 FILLER_0_1_81
*778 FILLER_0_1_93
*779 FILLER_0_20_109
*780 FILLER_0_20_121
*781 FILLER_0_20_133
*782 FILLER_0_20_139
*783 FILLER_0_20_141
*784 FILLER_0_20_15
*785 FILLER_0_20_153
*786 FILLER_0_20_165
*787 FILLER_0_20_177
*788 FILLER_0_20_189
*789 FILLER_0_20_195
*790 FILLER_0_20_197
*791 FILLER_0_20_209
*792 FILLER_0_20_221
*793 FILLER_0_20_233
*794 FILLER_0_20_245
*795 FILLER_0_20_251
*796 FILLER_0_20_253
*797 FILLER_0_20_27
*798 FILLER_0_20_282
*799 FILLER_0_20_29
*800 FILLER_0_20_294
*801 FILLER_0_20_3
*802 FILLER_0_20_306
*803 FILLER_0_20_309
*804 FILLER_0_20_321
*805 FILLER_0_20_333
*806 FILLER_0_20_41
*807 FILLER_0_20_53
*808 FILLER_0_20_65
*809 FILLER_0_20_77
*810 FILLER_0_20_83
*811 FILLER_0_20_85
*812 FILLER_0_20_97
*813 FILLER_0_21_105
*814 FILLER_0_21_111
*815 FILLER_0_21_113
*816 FILLER_0_21_125
*817 FILLER_0_21_137
*818 FILLER_0_21_149
*819 FILLER_0_21_15
*820 FILLER_0_21_161
*821 FILLER_0_21_167
*822 FILLER_0_21_169
*823 FILLER_0_21_181
*824 FILLER_0_21_193
*825 FILLER_0_21_205
*826 FILLER_0_21_217
*827 FILLER_0_21_223
*828 FILLER_0_21_225
*829 FILLER_0_21_237
*830 FILLER_0_21_249
*831 FILLER_0_21_27
*832 FILLER_0_21_287
*833 FILLER_0_21_299
*834 FILLER_0_21_3
*835 FILLER_0_21_320
*836 FILLER_0_21_332
*837 FILLER_0_21_39
*838 FILLER_0_21_51
*839 FILLER_0_21_55
*840 FILLER_0_21_57
*841 FILLER_0_21_69
*842 FILLER_0_21_81
*843 FILLER_0_21_93
*844 FILLER_0_22_109
*845 FILLER_0_22_121
*846 FILLER_0_22_133
*847 FILLER_0_22_139
*848 FILLER_0_22_141
*849 FILLER_0_22_15
*850 FILLER_0_22_153
*851 FILLER_0_22_165
*852 FILLER_0_22_177
*853 FILLER_0_22_189
*854 FILLER_0_22_195
*855 FILLER_0_22_197
*856 FILLER_0_22_209
*857 FILLER_0_22_221
*858 FILLER_0_22_233
*859 FILLER_0_22_245
*860 FILLER_0_22_251
*861 FILLER_0_22_27
*862 FILLER_0_22_29
*863 FILLER_0_22_3
*864 FILLER_0_22_307
*865 FILLER_0_22_330
*866 FILLER_0_22_334
*867 FILLER_0_22_41
*868 FILLER_0_22_53
*869 FILLER_0_22_65
*870 FILLER_0_22_77
*871 FILLER_0_22_83
*872 FILLER_0_22_85
*873 FILLER_0_22_97
*874 FILLER_0_23_105
*875 FILLER_0_23_111
*876 FILLER_0_23_113
*877 FILLER_0_23_125
*878 FILLER_0_23_137
*879 FILLER_0_23_149
*880 FILLER_0_23_15
*881 FILLER_0_23_161
*882 FILLER_0_23_167
*883 FILLER_0_23_177
*884 FILLER_0_23_189
*885 FILLER_0_23_201
*886 FILLER_0_23_213
*887 FILLER_0_23_221
*888 FILLER_0_23_225
*889 FILLER_0_23_243
*890 FILLER_0_23_255
*891 FILLER_0_23_27
*892 FILLER_0_23_278
*893 FILLER_0_23_286
*894 FILLER_0_23_298
*895 FILLER_0_23_3
*896 FILLER_0_23_306
*897 FILLER_0_23_312
*898 FILLER_0_23_329
*899 FILLER_0_23_39
*900 FILLER_0_23_51
*901 FILLER_0_23_55
*902 FILLER_0_23_57
*903 FILLER_0_23_69
*904 FILLER_0_23_81
*905 FILLER_0_23_93
*906 FILLER_0_24_109
*907 FILLER_0_24_121
*908 FILLER_0_24_133
*909 FILLER_0_24_139
*910 FILLER_0_24_141
*911 FILLER_0_24_15
*912 FILLER_0_24_153
*913 FILLER_0_24_180
*914 FILLER_0_24_192
*915 FILLER_0_24_197
*916 FILLER_0_24_209
*917 FILLER_0_24_247
*918 FILLER_0_24_251
*919 FILLER_0_24_253
*920 FILLER_0_24_261
*921 FILLER_0_24_27
*922 FILLER_0_24_284
*923 FILLER_0_24_29
*924 FILLER_0_24_296
*925 FILLER_0_24_3
*926 FILLER_0_24_323
*927 FILLER_0_24_41
*928 FILLER_0_24_53
*929 FILLER_0_24_65
*930 FILLER_0_24_77
*931 FILLER_0_24_83
*932 FILLER_0_24_85
*933 FILLER_0_24_97
*934 FILLER_0_25_101
*935 FILLER_0_25_105
*936 FILLER_0_25_111
*937 FILLER_0_25_113
*938 FILLER_0_25_125
*939 FILLER_0_25_137
*940 FILLER_0_25_149
*941 FILLER_0_25_15
*942 FILLER_0_25_157
*943 FILLER_0_25_217
*944 FILLER_0_25_223
*945 FILLER_0_25_249
*946 FILLER_0_25_261
*947 FILLER_0_25_27
*948 FILLER_0_25_275
*949 FILLER_0_25_279
*950 FILLER_0_25_281
*951 FILLER_0_25_290
*952 FILLER_0_25_3
*953 FILLER_0_25_334
*954 FILLER_0_25_39
*955 FILLER_0_25_51
*956 FILLER_0_25_55
*957 FILLER_0_25_57
*958 FILLER_0_25_69
*959 FILLER_0_25_81
*960 FILLER_0_25_93
*961 FILLER_0_26_122
*962 FILLER_0_26_138
*963 FILLER_0_26_147
*964 FILLER_0_26_15
*965 FILLER_0_26_192
*966 FILLER_0_26_205
*967 FILLER_0_26_217
*968 FILLER_0_26_242
*969 FILLER_0_26_246
*970 FILLER_0_26_253
*971 FILLER_0_26_27
*972 FILLER_0_26_284
*973 FILLER_0_26_29
*974 FILLER_0_26_290
*975 FILLER_0_26_3
*976 FILLER_0_26_332
*977 FILLER_0_26_41
*978 FILLER_0_26_53
*979 FILLER_0_26_65
*980 FILLER_0_26_77
*981 FILLER_0_26_83
*982 FILLER_0_26_85
*983 FILLER_0_26_97
*984 FILLER_0_27_125
*985 FILLER_0_27_140
*986 FILLER_0_27_15
*987 FILLER_0_27_152
*988 FILLER_0_27_157
*989 FILLER_0_27_169
*990 FILLER_0_27_173
*991 FILLER_0_27_206
*992 FILLER_0_27_218
*993 FILLER_0_27_232
*994 FILLER_0_27_244
*995 FILLER_0_27_27
*996 FILLER_0_27_274
*997 FILLER_0_27_289
*998 FILLER_0_27_3
*999 FILLER_0_27_301
*1000 FILLER_0_27_305
*1001 FILLER_0_27_320
*1002 FILLER_0_27_332
*1003 FILLER_0_27_39
*1004 FILLER_0_27_51
*1005 FILLER_0_27_55
*1006 FILLER_0_27_57
*1007 FILLER_0_27_69
*1008 FILLER_0_27_81
*1009 FILLER_0_28_108
*1010 FILLER_0_28_116
*1011 FILLER_0_28_128
*1012 FILLER_0_28_141
*1013 FILLER_0_28_148
*1014 FILLER_0_28_15
*1015 FILLER_0_28_156
*1016 FILLER_0_28_160
*1017 FILLER_0_28_168
*1018 FILLER_0_28_179
*1019 FILLER_0_28_195
*1020 FILLER_0_28_212
*1021 FILLER_0_28_247
*1022 FILLER_0_28_251
*1023 FILLER_0_28_256
*1024 FILLER_0_28_27
*1025 FILLER_0_28_29
*1026 FILLER_0_28_3
*1027 FILLER_0_28_304
*1028 FILLER_0_28_315
*1029 FILLER_0_28_327
*1030 FILLER_0_28_41
*1031 FILLER_0_28_53
*1032 FILLER_0_28_65
*1033 FILLER_0_28_77
*1034 FILLER_0_28_83
*1035 FILLER_0_28_85
*1036 FILLER_0_28_93
*1037 FILLER_0_29_105
*1038 FILLER_0_29_111
*1039 FILLER_0_29_113
*1040 FILLER_0_29_125
*1041 FILLER_0_29_15
*1042 FILLER_0_29_154
*1043 FILLER_0_29_166
*1044 FILLER_0_29_169
*1045 FILLER_0_29_178
*1046 FILLER_0_29_195
*1047 FILLER_0_29_207
*1048 FILLER_0_29_218
*1049 FILLER_0_29_242
*1050 FILLER_0_29_250
*1051 FILLER_0_29_27
*1052 FILLER_0_29_273
*1053 FILLER_0_29_279
*1054 FILLER_0_29_285
*1055 FILLER_0_29_293
*1056 FILLER_0_29_3
*1057 FILLER_0_29_323
*1058 FILLER_0_29_331
*1059 FILLER_0_29_39
*1060 FILLER_0_29_51
*1061 FILLER_0_29_55
*1062 FILLER_0_29_57
*1063 FILLER_0_29_69
*1064 FILLER_0_29_81
*1065 FILLER_0_29_93
*1066 FILLER_0_2_109
*1067 FILLER_0_2_121
*1068 FILLER_0_2_133
*1069 FILLER_0_2_139
*1070 FILLER_0_2_141
*1071 FILLER_0_2_15
*1072 FILLER_0_2_153
*1073 FILLER_0_2_165
*1074 FILLER_0_2_177
*1075 FILLER_0_2_189
*1076 FILLER_0_2_195
*1077 FILLER_0_2_197
*1078 FILLER_0_2_209
*1079 FILLER_0_2_221
*1080 FILLER_0_2_233
*1081 FILLER_0_2_245
*1082 FILLER_0_2_251
*1083 FILLER_0_2_253
*1084 FILLER_0_2_265
*1085 FILLER_0_2_27
*1086 FILLER_0_2_277
*1087 FILLER_0_2_289
*1088 FILLER_0_2_29
*1089 FILLER_0_2_3
*1090 FILLER_0_2_301
*1091 FILLER_0_2_307
*1092 FILLER_0_2_309
*1093 FILLER_0_2_321
*1094 FILLER_0_2_333
*1095 FILLER_0_2_41
*1096 FILLER_0_2_53
*1097 FILLER_0_2_65
*1098 FILLER_0_2_77
*1099 FILLER_0_2_83
*1100 FILLER_0_2_85
*1101 FILLER_0_2_97
*1102 FILLER_0_30_109
*1103 FILLER_0_30_121
*1104 FILLER_0_30_133
*1105 FILLER_0_30_139
*1106 FILLER_0_30_141
*1107 FILLER_0_30_15
*1108 FILLER_0_30_152
*1109 FILLER_0_30_164
*1110 FILLER_0_30_172
*1111 FILLER_0_30_180
*1112 FILLER_0_30_187
*1113 FILLER_0_30_194
*1114 FILLER_0_30_202
*1115 FILLER_0_30_210
*1116 FILLER_0_30_251
*1117 FILLER_0_30_27
*1118 FILLER_0_30_271
*1119 FILLER_0_30_29
*1120 FILLER_0_30_296
*1121 FILLER_0_30_3
*1122 FILLER_0_30_333
*1123 FILLER_0_30_41
*1124 FILLER_0_30_53
*1125 FILLER_0_30_65
*1126 FILLER_0_30_77
*1127 FILLER_0_30_83
*1128 FILLER_0_30_85
*1129 FILLER_0_30_93
*1130 FILLER_0_31_113
*1131 FILLER_0_31_134
*1132 FILLER_0_31_15
*1133 FILLER_0_31_161
*1134 FILLER_0_31_167
*1135 FILLER_0_31_175
*1136 FILLER_0_31_187
*1137 FILLER_0_31_195
*1138 FILLER_0_31_207
*1139 FILLER_0_31_220
*1140 FILLER_0_31_250
*1141 FILLER_0_31_27
*1142 FILLER_0_31_297
*1143 FILLER_0_31_3
*1144 FILLER_0_31_305
*1145 FILLER_0_31_311
*1146 FILLER_0_31_334
*1147 FILLER_0_31_39
*1148 FILLER_0_31_51
*1149 FILLER_0_31_55
*1150 FILLER_0_31_57
*1151 FILLER_0_31_69
*1152 FILLER_0_31_81
*1153 FILLER_0_31_89
*1154 FILLER_0_32_106
*1155 FILLER_0_32_134
*1156 FILLER_0_32_15
*1157 FILLER_0_32_170
*1158 FILLER_0_32_174
*1159 FILLER_0_32_186
*1160 FILLER_0_32_194
*1161 FILLER_0_32_202
*1162 FILLER_0_32_214
*1163 FILLER_0_32_222
*1164 FILLER_0_32_244
*1165 FILLER_0_32_253
*1166 FILLER_0_32_27
*1167 FILLER_0_32_282
*1168 FILLER_0_32_29
*1169 FILLER_0_32_294
*1170 FILLER_0_32_3
*1171 FILLER_0_32_306
*1172 FILLER_0_32_309
*1173 FILLER_0_32_331
*1174 FILLER_0_32_41
*1175 FILLER_0_32_53
*1176 FILLER_0_32_65
*1177 FILLER_0_32_77
*1178 FILLER_0_32_83
*1179 FILLER_0_32_85
*1180 FILLER_0_32_89
*1181 FILLER_0_33_101
*1182 FILLER_0_33_110
*1183 FILLER_0_33_113
*1184 FILLER_0_33_130
*1185 FILLER_0_33_138
*1186 FILLER_0_33_148
*1187 FILLER_0_33_15
*1188 FILLER_0_33_153
*1189 FILLER_0_33_162
*1190 FILLER_0_33_167
*1191 FILLER_0_33_169
*1192 FILLER_0_33_177
*1193 FILLER_0_33_183
*1194 FILLER_0_33_208
*1195 FILLER_0_33_220
*1196 FILLER_0_33_225
*1197 FILLER_0_33_238
*1198 FILLER_0_33_250
*1199 FILLER_0_33_262
*1200 FILLER_0_33_27
*1201 FILLER_0_33_273
*1202 FILLER_0_33_285
*1203 FILLER_0_33_3
*1204 FILLER_0_33_308
*1205 FILLER_0_33_318
*1206 FILLER_0_33_326
*1207 FILLER_0_33_39
*1208 FILLER_0_33_51
*1209 FILLER_0_33_55
*1210 FILLER_0_33_57
*1211 FILLER_0_33_69
*1212 FILLER_0_33_81
*1213 FILLER_0_33_93
*1214 FILLER_0_34_111
*1215 FILLER_0_34_132
*1216 FILLER_0_34_141
*1217 FILLER_0_34_145
*1218 FILLER_0_34_15
*1219 FILLER_0_34_174
*1220 FILLER_0_34_178
*1221 FILLER_0_34_187
*1222 FILLER_0_34_195
*1223 FILLER_0_34_200
*1224 FILLER_0_34_219
*1225 FILLER_0_34_231
*1226 FILLER_0_34_239
*1227 FILLER_0_34_249
*1228 FILLER_0_34_253
*1229 FILLER_0_34_265
*1230 FILLER_0_34_27
*1231 FILLER_0_34_273
*1232 FILLER_0_34_29
*1233 FILLER_0_34_299
*1234 FILLER_0_34_3
*1235 FILLER_0_34_307
*1236 FILLER_0_34_328
*1237 FILLER_0_34_334
*1238 FILLER_0_34_41
*1239 FILLER_0_34_53
*1240 FILLER_0_34_65
*1241 FILLER_0_34_77
*1242 FILLER_0_34_83
*1243 FILLER_0_34_85
*1244 FILLER_0_34_93
*1245 FILLER_0_35_101
*1246 FILLER_0_35_146
*1247 FILLER_0_35_15
*1248 FILLER_0_35_169
*1249 FILLER_0_35_225
*1250 FILLER_0_35_231
*1251 FILLER_0_35_236
*1252 FILLER_0_35_240
*1253 FILLER_0_35_260
*1254 FILLER_0_35_268
*1255 FILLER_0_35_27
*1256 FILLER_0_35_299
*1257 FILLER_0_35_3
*1258 FILLER_0_35_320
*1259 FILLER_0_35_332
*1260 FILLER_0_35_39
*1261 FILLER_0_35_51
*1262 FILLER_0_35_55
*1263 FILLER_0_35_57
*1264 FILLER_0_35_69
*1265 FILLER_0_35_81
*1266 FILLER_0_35_93
*1267 FILLER_0_36_105
*1268 FILLER_0_36_137
*1269 FILLER_0_36_15
*1270 FILLER_0_36_179
*1271 FILLER_0_36_190
*1272 FILLER_0_36_197
*1273 FILLER_0_36_203
*1274 FILLER_0_36_220
*1275 FILLER_0_36_228
*1276 FILLER_0_36_247
*1277 FILLER_0_36_251
*1278 FILLER_0_36_262
*1279 FILLER_0_36_27
*1280 FILLER_0_36_29
*1281 FILLER_0_36_293
*1282 FILLER_0_36_3
*1283 FILLER_0_36_309
*1284 FILLER_0_36_327
*1285 FILLER_0_36_41
*1286 FILLER_0_36_53
*1287 FILLER_0_36_65
*1288 FILLER_0_36_77
*1289 FILLER_0_36_83
*1290 FILLER_0_36_85
*1291 FILLER_0_36_97
*1292 FILLER_0_37_105
*1293 FILLER_0_37_111
*1294 FILLER_0_37_113
*1295 FILLER_0_37_139
*1296 FILLER_0_37_15
*1297 FILLER_0_37_174
*1298 FILLER_0_37_199
*1299 FILLER_0_37_218
*1300 FILLER_0_37_225
*1301 FILLER_0_37_256
*1302 FILLER_0_37_27
*1303 FILLER_0_37_296
*1304 FILLER_0_37_3
*1305 FILLER_0_37_333
*1306 FILLER_0_37_39
*1307 FILLER_0_37_51
*1308 FILLER_0_37_55
*1309 FILLER_0_37_57
*1310 FILLER_0_37_69
*1311 FILLER_0_37_81
*1312 FILLER_0_37_93
*1313 FILLER_0_38_10
*1314 FILLER_0_38_102
*1315 FILLER_0_38_106
*1316 FILLER_0_38_110
*1317 FILLER_0_38_124
*1318 FILLER_0_38_133
*1319 FILLER_0_38_139
*1320 FILLER_0_38_14
*1321 FILLER_0_38_141
*1322 FILLER_0_38_153
*1323 FILLER_0_38_162
*1324 FILLER_0_38_169
*1325 FILLER_0_38_18
*1326 FILLER_0_38_181
*1327 FILLER_0_38_193
*1328 FILLER_0_38_197
*1329 FILLER_0_38_206
*1330 FILLER_0_38_218
*1331 FILLER_0_38_22
*1332 FILLER_0_38_225
*1333 FILLER_0_38_233
*1334 FILLER_0_38_248
*1335 FILLER_0_38_265
*1336 FILLER_0_38_270
*1337 FILLER_0_38_295
*1338 FILLER_0_38_302
*1339 FILLER_0_38_309
*1340 FILLER_0_38_32
*1341 FILLER_0_38_331
*1342 FILLER_0_38_38
*1343 FILLER_0_38_42
*1344 FILLER_0_38_46
*1345 FILLER_0_38_50
*1346 FILLER_0_38_54
*1347 FILLER_0_38_57
*1348 FILLER_0_38_6
*1349 FILLER_0_38_62
*1350 FILLER_0_38_66
*1351 FILLER_0_38_70
*1352 FILLER_0_38_74
*1353 FILLER_0_38_78
*1354 FILLER_0_38_88
*1355 FILLER_0_38_94
*1356 FILLER_0_38_98
*1357 FILLER_0_3_105
*1358 FILLER_0_3_111
*1359 FILLER_0_3_113
*1360 FILLER_0_3_125
*1361 FILLER_0_3_137
*1362 FILLER_0_3_149
*1363 FILLER_0_3_15
*1364 FILLER_0_3_161
*1365 FILLER_0_3_167
*1366 FILLER_0_3_169
*1367 FILLER_0_3_181
*1368 FILLER_0_3_193
*1369 FILLER_0_3_205
*1370 FILLER_0_3_217
*1371 FILLER_0_3_223
*1372 FILLER_0_3_225
*1373 FILLER_0_3_237
*1374 FILLER_0_3_249
*1375 FILLER_0_3_261
*1376 FILLER_0_3_27
*1377 FILLER_0_3_273
*1378 FILLER_0_3_279
*1379 FILLER_0_3_281
*1380 FILLER_0_3_293
*1381 FILLER_0_3_3
*1382 FILLER_0_3_305
*1383 FILLER_0_3_317
*1384 FILLER_0_3_329
*1385 FILLER_0_3_39
*1386 FILLER_0_3_51
*1387 FILLER_0_3_55
*1388 FILLER_0_3_57
*1389 FILLER_0_3_69
*1390 FILLER_0_3_81
*1391 FILLER_0_3_93
*1392 FILLER_0_4_109
*1393 FILLER_0_4_121
*1394 FILLER_0_4_133
*1395 FILLER_0_4_139
*1396 FILLER_0_4_141
*1397 FILLER_0_4_15
*1398 FILLER_0_4_153
*1399 FILLER_0_4_165
*1400 FILLER_0_4_177
*1401 FILLER_0_4_189
*1402 FILLER_0_4_195
*1403 FILLER_0_4_197
*1404 FILLER_0_4_209
*1405 FILLER_0_4_221
*1406 FILLER_0_4_233
*1407 FILLER_0_4_245
*1408 FILLER_0_4_251
*1409 FILLER_0_4_253
*1410 FILLER_0_4_265
*1411 FILLER_0_4_27
*1412 FILLER_0_4_277
*1413 FILLER_0_4_289
*1414 FILLER_0_4_29
*1415 FILLER_0_4_3
*1416 FILLER_0_4_301
*1417 FILLER_0_4_307
*1418 FILLER_0_4_309
*1419 FILLER_0_4_321
*1420 FILLER_0_4_333
*1421 FILLER_0_4_41
*1422 FILLER_0_4_53
*1423 FILLER_0_4_65
*1424 FILLER_0_4_77
*1425 FILLER_0_4_83
*1426 FILLER_0_4_85
*1427 FILLER_0_4_97
*1428 FILLER_0_5_105
*1429 FILLER_0_5_111
*1430 FILLER_0_5_113
*1431 FILLER_0_5_125
*1432 FILLER_0_5_137
*1433 FILLER_0_5_149
*1434 FILLER_0_5_15
*1435 FILLER_0_5_161
*1436 FILLER_0_5_167
*1437 FILLER_0_5_169
*1438 FILLER_0_5_181
*1439 FILLER_0_5_193
*1440 FILLER_0_5_205
*1441 FILLER_0_5_217
*1442 FILLER_0_5_223
*1443 FILLER_0_5_225
*1444 FILLER_0_5_237
*1445 FILLER_0_5_249
*1446 FILLER_0_5_261
*1447 FILLER_0_5_27
*1448 FILLER_0_5_273
*1449 FILLER_0_5_279
*1450 FILLER_0_5_281
*1451 FILLER_0_5_293
*1452 FILLER_0_5_3
*1453 FILLER_0_5_305
*1454 FILLER_0_5_317
*1455 FILLER_0_5_329
*1456 FILLER_0_5_39
*1457 FILLER_0_5_51
*1458 FILLER_0_5_55
*1459 FILLER_0_5_57
*1460 FILLER_0_5_69
*1461 FILLER_0_5_81
*1462 FILLER_0_5_93
*1463 FILLER_0_6_109
*1464 FILLER_0_6_121
*1465 FILLER_0_6_133
*1466 FILLER_0_6_139
*1467 FILLER_0_6_141
*1468 FILLER_0_6_15
*1469 FILLER_0_6_153
*1470 FILLER_0_6_165
*1471 FILLER_0_6_177
*1472 FILLER_0_6_189
*1473 FILLER_0_6_195
*1474 FILLER_0_6_197
*1475 FILLER_0_6_209
*1476 FILLER_0_6_221
*1477 FILLER_0_6_233
*1478 FILLER_0_6_245
*1479 FILLER_0_6_251
*1480 FILLER_0_6_253
*1481 FILLER_0_6_265
*1482 FILLER_0_6_27
*1483 FILLER_0_6_277
*1484 FILLER_0_6_289
*1485 FILLER_0_6_29
*1486 FILLER_0_6_3
*1487 FILLER_0_6_301
*1488 FILLER_0_6_307
*1489 FILLER_0_6_309
*1490 FILLER_0_6_321
*1491 FILLER_0_6_333
*1492 FILLER_0_6_41
*1493 FILLER_0_6_53
*1494 FILLER_0_6_65
*1495 FILLER_0_6_77
*1496 FILLER_0_6_83
*1497 FILLER_0_6_85
*1498 FILLER_0_6_97
*1499 FILLER_0_7_105
*1500 FILLER_0_7_111
*1501 FILLER_0_7_113
*1502 FILLER_0_7_125
*1503 FILLER_0_7_137
*1504 FILLER_0_7_149
*1505 FILLER_0_7_15
*1506 FILLER_0_7_161
*1507 FILLER_0_7_167
*1508 FILLER_0_7_169
*1509 FILLER_0_7_181
*1510 FILLER_0_7_193
*1511 FILLER_0_7_205
*1512 FILLER_0_7_217
*1513 FILLER_0_7_223
*1514 FILLER_0_7_225
*1515 FILLER_0_7_237
*1516 FILLER_0_7_249
*1517 FILLER_0_7_261
*1518 FILLER_0_7_27
*1519 FILLER_0_7_273
*1520 FILLER_0_7_279
*1521 FILLER_0_7_281
*1522 FILLER_0_7_293
*1523 FILLER_0_7_3
*1524 FILLER_0_7_305
*1525 FILLER_0_7_317
*1526 FILLER_0_7_329
*1527 FILLER_0_7_39
*1528 FILLER_0_7_51
*1529 FILLER_0_7_55
*1530 FILLER_0_7_57
*1531 FILLER_0_7_69
*1532 FILLER_0_7_81
*1533 FILLER_0_7_93
*1534 FILLER_0_8_109
*1535 FILLER_0_8_121
*1536 FILLER_0_8_133
*1537 FILLER_0_8_139
*1538 FILLER_0_8_141
*1539 FILLER_0_8_15
*1540 FILLER_0_8_153
*1541 FILLER_0_8_165
*1542 FILLER_0_8_177
*1543 FILLER_0_8_189
*1544 FILLER_0_8_195
*1545 FILLER_0_8_197
*1546 FILLER_0_8_209
*1547 FILLER_0_8_221
*1548 FILLER_0_8_233
*1549 FILLER_0_8_245
*1550 FILLER_0_8_251
*1551 FILLER_0_8_253
*1552 FILLER_0_8_265
*1553 FILLER_0_8_27
*1554 FILLER_0_8_277
*1555 FILLER_0_8_289
*1556 FILLER_0_8_29
*1557 FILLER_0_8_3
*1558 FILLER_0_8_301
*1559 FILLER_0_8_307