*SPEF "ieee 1481-1999"
*DESIGN "tt_um_toivoh_basilisc_2816"
*DATE "13:18:43 Friday May 24, 2024"
*VENDOR "The OpenROAD Project"
*PROGRAM "OpenROAD"
*VERSION "da0053d7b0014ab9c87ea148875ff6c2a0f9b658"
*DESIGN_FLOW "NAME_SCOPE LOCAL" "PIN_CAP NONE"
*DIVIDER /
*DELIMITER :
*BUS_DELIMITER []
*T_UNIT 1 NS
*C_UNIT 1 PF
*R_UNIT 1 OHM
*L_UNIT 1 HENRY

*NAME_MAP
*3 clk
*4 ena
*5 rst_n
*6 ui_in[0]
*7 ui_in[1]
*8 ui_in[2]
*9 ui_in[3]
*10 ui_in[4]
*11 ui_in[5]
*12 ui_in[6]
*13 ui_in[7]
*14 uio_in[0]
*15 uio_in[1]
*16 uio_in[2]
*17 uio_in[3]
*18 uio_in[4]
*19 uio_in[5]
*20 uio_in[6]
*21 uio_in[7]
*22 net9
*23 net10
*24 net11
*25 net12
*26 net13
*27 net14
*28 net15
*29 net16
*30 net17
*31 net18
*32 net19
*33 net20
*34 net21
*35 net22
*36 net23
*37 net24
*38 uo_out[0]
*39 uo_out[1]
*40 uo_out[2]
*41 uo_out[3]
*42 net25
*43 net26
*44 net27
*45 net28
*46 _0000_
*47 _0001_
*48 _0002_
*49 _0003_
*50 _0004_
*51 _0005_
*52 _0006_
*53 _0007_
*54 _0008_
*55 _0009_
*56 _0010_
*57 _0011_
*58 _0012_
*59 _0013_
*60 _0014_
*61 _0015_
*62 _0016_
*63 _0017_
*64 _0018_
*65 _0019_
*66 _0020_
*67 _0021_
*68 _0022_
*69 _0023_
*70 _0024_
*71 _0025_
*72 _0026_
*73 _0027_
*74 _0028_
*75 _0029_
*76 _0030_
*77 _0031_
*78 _0032_
*79 _0033_
*80 _0034_
*81 _0035_
*82 _0036_
*83 _0037_
*84 _0038_
*85 _0039_
*86 _0040_
*87 _0041_
*88 _0042_
*89 _0043_
*90 _0044_
*91 _0045_
*92 _0046_
*93 _0047_
*94 _0048_
*95 _0049_
*96 _0050_
*97 _0051_
*98 _0052_
*99 _0053_
*100 _0054_
*101 _0055_
*102 _0056_
*103 _0057_
*104 _0058_
*105 _0059_
*106 _0060_
*107 _0061_
*108 _0062_
*109 _0063_
*110 _0064_
*111 _0065_
*112 _0066_
*113 _0067_
*114 _0068_
*115 _0069_
*116 _0070_
*117 _0071_
*118 _0072_
*119 _0073_
*120 _0074_
*121 _0075_
*122 _0076_
*123 _0077_
*124 _0078_
*125 _0079_
*126 _0080_
*127 _0081_
*128 _0082_
*129 _0083_
*130 _0084_
*131 _0085_
*132 _0086_
*133 _0087_
*134 _0088_
*135 _0089_
*136 _0090_
*137 _0091_
*138 _0092_
*139 _0093_
*140 _0094_
*141 _0095_
*142 _0096_
*143 _0097_
*144 _0098_
*145 _0099_
*146 _0100_
*147 _0101_
*148 _0102_
*149 _0103_
*150 _0104_
*151 _0105_
*152 _0106_
*153 _0107_
*154 _0108_
*155 _0109_
*156 _0110_
*157 _0111_
*158 _0112_
*159 _0113_
*160 _0114_
*161 _0115_
*162 _0116_
*163 _0117_
*164 _0118_
*165 _0119_
*166 _0120_
*167 _0121_
*168 _0122_
*169 _0123_
*170 _0124_
*171 _0125_
*172 _0126_
*173 _0127_
*174 _0128_
*175 _0129_
*176 _0130_
*177 _0131_
*178 _0132_
*179 _0133_
*180 _0134_
*181 _0135_
*182 _0136_
*183 _0137_
*184 _0138_
*185 _0139_
*186 _0140_
*187 _0141_
*188 _0142_
*189 _0143_
*190 _0144_
*191 _0145_
*192 _0146_
*193 _0147_
*194 _0148_
*195 _0149_
*196 _0150_
*197 _0151_
*198 _0152_
*199 _0153_
*200 _0154_
*201 _0155_
*202 _0156_
*203 _0157_
*204 _0158_
*205 _0159_
*206 _0160_
*207 _0161_
*208 _0162_
*209 _0163_
*210 _0164_
*211 _0165_
*212 _0166_
*213 _0167_
*214 _0168_
*215 _0169_
*216 _0170_
*217 _0171_
*218 _0172_
*219 _0173_
*220 _0174_
*221 _0175_
*222 _0176_
*223 _0177_
*224 _0178_
*225 _0179_
*226 _0180_
*227 _0181_
*228 _0182_
*229 _0183_
*230 _0184_
*231 _0185_
*232 _0186_
*233 _0187_
*234 _0188_
*235 _0189_
*236 _0190_
*237 _0191_
*238 _0192_
*239 _0193_
*240 _0194_
*241 _0195_
*242 _0196_
*243 _0197_
*244 _0198_
*245 _0199_
*246 _0200_
*247 _0201_
*248 _0202_
*249 _0203_
*250 _0204_
*251 _0205_
*252 _0206_
*253 _0207_
*254 _0208_
*255 _0209_
*256 _0210_
*257 _0211_
*258 _0212_
*259 _0213_
*260 _0214_
*261 _0215_
*262 _0216_
*263 _0217_
*264 _0218_
*265 _0219_
*266 _0220_
*267 _0221_
*268 _0222_
*269 _0223_
*270 _0224_
*271 _0225_
*272 _0226_
*273 _0227_
*274 _0228_
*275 _0229_
*276 _0230_
*277 _0231_
*278 _0232_
*279 _0233_
*280 _0234_
*281 _0235_
*282 _0236_
*283 _0237_
*284 _0238_
*285 _0239_
*286 _0240_
*287 _0241_
*288 _0242_
*289 _0243_
*290 _0244_
*291 _0245_
*292 _0246_
*293 _0247_
*294 _0248_
*295 _0249_
*296 _0250_
*297 _0251_
*298 _0252_
*299 _0253_
*300 _0254_
*301 _0255_
*302 _0256_
*303 _0257_
*304 _0258_
*305 _0259_
*306 _0260_
*307 _0261_
*308 _0262_
*309 _0263_
*310 _0264_
*311 _0265_
*312 _0266_
*313 _0267_
*314 _0268_
*315 _0269_
*316 _0270_
*317 _0271_
*318 _0272_
*319 _0273_
*320 _0274_
*321 _0275_
*322 _0276_
*323 _0277_
*324 _0278_
*325 _0279_
*326 _0280_
*327 _0281_
*328 _0282_
*329 _0283_
*330 _0284_
*331 _0285_
*332 _0286_
*333 _0287_
*334 _0288_
*335 _0289_
*336 _0290_
*337 _0291_
*338 _0292_
*339 _0293_
*340 _0294_
*341 _0295_
*342 _0296_
*343 _0297_
*344 _0298_
*345 _0299_
*346 _0300_
*347 _0301_
*348 _0302_
*349 _0303_
*350 _0304_
*351 _0305_
*352 _0306_
*353 _0307_
*354 _0308_
*355 _0309_
*356 _0310_
*357 _0311_
*358 _0312_
*359 _0313_
*360 _0314_
*361 _0315_
*362 _0316_
*363 _0317_
*364 _0318_
*365 _0319_
*366 _0320_
*367 _0321_
*368 _0322_
*369 _0323_
*370 _0324_
*371 _0325_
*372 _0326_
*373 _0327_
*374 _0328_
*375 _0329_
*376 _0330_
*377 _0331_
*378 _0332_
*379 _0333_
*380 _0334_
*381 _0335_
*382 _0336_
*383 _0337_
*384 _0338_
*385 _0339_
*386 _0340_
*387 _0341_
*388 _0342_
*389 _0343_
*390 _0344_
*391 _0345_
*392 _0346_
*393 _0347_
*394 _0348_
*395 _0349_
*396 _0350_
*397 _0351_
*398 _0352_
*399 _0353_
*400 _0354_
*401 _0355_
*402 _0356_
*403 _0357_
*404 _0358_
*405 _0359_
*406 _0360_
*407 _0361_
*408 _0362_
*409 _0363_
*410 _0364_
*411 _0365_
*412 _0366_
*413 _0367_
*414 _0368_
*415 _0369_
*416 _0370_
*417 _0371_
*418 _0372_
*419 _0373_
*420 _0374_
*421 _0375_
*422 _0376_
*423 _0377_
*424 _0378_
*425 _0379_
*426 _0380_
*427 _0381_
*428 _0382_
*429 _0383_
*430 _0384_
*431 _0385_
*432 _0386_
*433 _0387_
*434 _0388_
*435 _0389_
*436 _0390_
*437 _0391_
*438 _0392_
*439 _0393_
*440 _0394_
*441 _0395_
*442 _0396_
*443 _0397_
*444 _0398_
*445 _0399_
*446 _0400_
*447 _0401_
*448 _0402_
*449 _0403_
*450 _0404_
*451 _0405_
*452 _0406_
*453 _0407_
*454 _0408_
*455 _0409_
*456 _0410_
*457 _0411_
*458 _0412_
*459 _0413_
*460 _0414_
*461 _0415_
*462 _0416_
*463 _0417_
*464 _0418_
*465 _0419_
*466 _0420_
*467 _0421_
*468 _0422_
*469 _0423_
*470 _0424_
*471 _0425_
*472 _0426_
*473 _0427_
*474 _0428_
*475 _0429_
*476 _0430_
*477 _0431_
*478 _0432_
*479 _0433_
*480 _0434_
*481 _0435_
*482 _0436_
*483 _0437_
*484 _0438_
*485 _0439_
*486 _0440_
*487 _0441_
*488 _0442_
*489 _0443_
*490 _0444_
*491 _0445_
*492 _0446_
*493 _0447_
*494 _0448_
*495 _0449_
*496 _0450_
*497 _0451_
*498 _0452_
*499 _0453_
*500 _0454_
*501 _0455_
*502 _0456_
*503 _0457_
*504 _0458_
*505 _0459_
*506 _0460_
*507 _0461_
*508 _0462_
*509 _0463_
*510 _0464_
*511 _0465_
*512 _0466_
*513 _0467_
*514 _0468_
*515 _0469_
*516 _0470_
*517 _0471_
*518 _0472_
*519 _0473_
*520 _0474_
*521 _0475_
*522 _0476_
*523 _0477_
*524 _0478_
*525 _0479_
*526 _0480_
*527 _0481_
*528 _0482_
*529 _0483_
*530 _0484_
*531 _0485_
*532 _0486_
*533 _0487_
*534 _0488_
*535 _0489_
*536 _0490_
*537 _0491_
*538 _0492_
*539 _0493_
*540 _0494_
*541 _0495_
*542 _0496_
*543 _0497_
*544 _0498_
*545 _0499_
*546 _0500_
*547 _0501_
*548 _0502_
*549 _0503_
*550 _0504_
*551 _0505_
*552 _0506_
*553 _0507_
*554 _0508_
*555 _0509_
*556 _0510_
*557 _0511_
*558 _0512_
*559 _0513_
*560 _0514_
*561 _0515_
*562 _0516_
*563 _0517_
*564 _0518_
*565 _0519_
*566 _0520_
*567 _0521_
*568 _0522_
*569 _0523_
*570 _0524_
*571 _0525_
*572 _0526_
*573 _0527_
*574 _0528_
*575 _0529_
*576 _0530_
*577 _0531_
*578 _0532_
*579 _0533_
*580 _0534_
*581 _0535_
*582 _0536_
*583 _0537_
*584 _0538_
*585 _0539_
*586 _0540_
*587 _0541_
*588 _0542_
*589 _0543_
*590 _0544_
*591 _0545_
*592 _0546_
*593 _0547_
*594 _0548_
*595 _0549_
*596 _0550_
*597 _0551_
*598 _0552_
*599 _0553_
*600 _0554_
*601 _0555_
*602 _0556_
*603 _0557_
*604 _0558_
*605 _0559_
*606 _0560_
*607 _0561_
*608 _0562_
*609 _0563_
*610 _0564_
*611 _0565_
*612 _0566_
*613 _0567_
*614 _0568_
*615 _0569_
*616 _0570_
*617 _0571_
*618 _0572_
*619 _0573_
*620 _0574_
*621 _0575_
*622 _0576_
*623 _0577_
*624 _0578_
*625 _0579_
*626 _0580_
*627 _0581_
*628 _0582_
*629 _0583_
*630 _0584_
*631 _0585_
*632 _0586_
*633 _0587_
*634 _0588_
*635 _0589_
*636 _0590_
*637 _0591_
*638 _0592_
*639 _0593_
*640 _0594_
*641 _0595_
*642 _0596_
*643 _0597_
*644 _0598_
*645 _0599_
*646 _0600_
*647 _0601_
*648 _0602_
*649 _0603_
*650 _0604_
*651 _0605_
*652 _0606_
*653 _0607_
*654 _0608_
*655 _0609_
*656 _0610_
*657 _0611_
*658 _0612_
*659 _0613_
*660 _0614_
*661 _0615_
*662 _0616_
*663 _0617_
*664 _0618_
*665 _0619_
*666 _0620_
*667 _0621_
*668 _0622_
*669 _0623_
*670 _0624_
*671 _0625_
*672 _0626_
*673 _0627_
*674 _0628_
*675 _0629_
*676 _0630_
*677 _0631_
*678 _0632_
*679 _0633_
*680 _0634_
*681 _0635_
*682 _0636_
*683 _0637_
*684 _0638_
*685 _0639_
*686 _0640_
*687 _0641_
*688 _0642_
*689 _0643_
*690 _0644_
*691 _0645_
*692 _0646_
*693 _0647_
*694 _0648_
*695 _0649_
*696 _0650_
*697 _0651_
*698 _0652_
*699 _0653_
*700 _0654_
*701 _0655_
*702 _0656_
*703 _0657_
*704 _0658_
*705 _0659_
*706 _0660_
*707 _0661_
*708 _0662_
*709 _0663_
*710 _0664_
*711 _0665_
*712 _0666_
*713 _0667_
*714 _0668_
*715 _0669_
*716 _0670_
*717 _0671_
*718 _0672_
*719 _0673_
*720 _0674_
*721 _0675_
*722 _0676_
*723 _0677_
*724 _0678_
*725 _0679_
*726 _0680_
*727 _0681_
*728 _0682_
*729 _0683_
*730 _0684_
*731 _0685_
*732 _0686_
*733 _0687_
*734 _0688_
*735 _0689_
*736 _0690_
*737 _0691_
*738 _0692_
*739 _0693_
*740 _0694_
*741 _0695_
*742 _0696_
*743 _0697_
*744 _0698_
*745 _0699_
*746 _0700_
*747 _0701_
*748 _0702_
*749 _0703_
*750 _0704_
*751 _0705_
*752 _0706_
*753 _0707_
*754 _0708_
*755 _0709_
*756 _0710_
*757 _0711_
*758 _0712_
*759 _0713_
*760 _0714_
*761 _0715_
*762 _0716_
*763 _0717_
*764 _0718_
*765 _0719_
*766 _0720_
*767 _0721_
*768 _0722_
*769 _0723_
*770 _0724_
*771 _0725_
*772 _0726_
*773 _0727_
*774 _0728_
*775 _0729_
*776 _0730_
*777 _0731_
*778 _0732_
*779 _0733_
*780 _0734_
*781 _0735_
*782 _0736_
*783 _0737_
*784 _0738_
*785 _0739_
*786 _0740_
*787 _0741_
*788 _0742_
*789 _0743_
*790 _0744_
*791 _0745_
*792 _0746_
*793 _0747_
*794 _0748_
*795 _0749_
*796 _0750_
*797 _0751_
*798 _0752_
*799 _0753_
*800 _0754_
*801 _0755_
*802 _0756_
*803 _0757_
*804 _0758_
*805 _0759_
*806 _0760_
*807 _0761_
*808 _0762_
*809 _0763_
*810 _0764_
*811 _0765_
*812 _0766_
*813 _0767_
*814 _0768_
*815 _0769_
*816 _0770_
*817 _0771_
*818 _0772_
*819 _0773_
*820 _0774_
*821 _0775_
*822 _0776_
*823 _0777_
*824 _0778_
*825 _0779_
*826 _0780_
*827 _0781_
*828 _0782_
*829 _0783_
*830 _0784_
*831 _0785_
*832 _0786_
*833 _0787_
*834 _0788_
*835 _0789_
*836 _0790_
*837 _0791_
*838 _0792_
*839 _0793_
*840 _0794_
*841 _0795_
*842 _0796_
*843 _0797_
*844 _0798_
*845 _0799_
*846 _0800_
*847 _0801_
*848 _0802_
*849 _0803_
*850 _0804_
*851 _0805_
*852 _0806_
*853 _0807_
*854 _0808_
*855 _0809_
*856 _0810_
*857 _0811_
*858 _0812_
*859 _0813_
*860 _0814_
*861 _0815_
*862 _0816_
*863 _0817_
*864 _0818_
*865 _0819_
*866 _0820_
*867 _0821_
*868 _0822_
*869 _0823_
*870 _0824_
*871 _0825_
*872 _0826_
*873 _0827_
*874 _0828_
*875 _0829_
*876 _0830_
*877 _0831_
*878 _0832_
*879 _0833_
*880 _0834_
*881 _0835_
*882 _0836_
*883 _0837_
*884 _0838_
*885 _0839_
*886 _0840_
*887 _0841_
*888 _0842_
*889 _0843_
*890 _0844_
*891 _0845_
*892 _0846_
*893 _0847_
*894 _0848_
*895 _0849_
*896 _0850_
*897 _0851_
*898 _0852_
*899 _0853_
*900 _0854_
*901 _0855_
*902 _0856_
*903 _0857_
*904 _0858_
*905 _0859_
*906 _0860_
*907 _0861_
*908 _0862_
*909 _0863_
*910 _0864_
*911 _0865_
*912 _0866_
*913 _0867_
*914 _0868_
*915 _0869_
*916 _0870_
*917 _0871_
*918 _0872_
*919 _0873_
*920 _0874_
*921 _0875_
*922 _0876_
*923 _0877_
*924 _0878_
*925 _0879_
*926 _0880_
*927 _0881_
*928 _0882_
*929 _0883_
*930 _0884_
*931 _0885_
*932 _0886_
*933 _0887_
*934 _0888_
*935 _0889_
*936 _0890_
*937 _0891_
*938 _0892_
*939 _0893_
*940 _0894_
*941 _0895_
*942 _0896_
*943 _0897_
*944 _0898_
*945 _0899_
*946 _0900_
*947 _0901_
*948 _0902_
*949 _0903_
*950 _0904_
*951 _0905_
*952 _0906_
*953 _0907_
*954 _0908_
*955 _0909_
*956 _0910_
*957 _0911_
*958 _0912_
*959 _0913_
*960 _0914_
*961 _0915_
*962 _0916_
*963 _0917_
*964 _0918_
*965 _0919_
*966 _0920_
*967 _0921_
*968 _0922_
*969 _0923_
*970 _0924_
*971 _0925_
*972 _0926_
*973 _0927_
*974 _0928_
*975 _0929_
*976 _0930_
*977 _0931_
*978 _0932_
*979 _0933_
*980 _0934_
*981 _0935_
*982 _0936_
*983 _0937_
*984 _0938_
*985 _0939_
*986 _0940_
*987 _0941_
*988 _0942_
*989 _0943_
*990 _0944_
*991 _0945_
*992 _0946_
*993 _0947_
*994 _0948_
*995 _0949_
*996 _0950_
*997 _0951_
*998 _0952_
*999 _0953_
*1000 _0954_
*1001 _0955_
*1002 _0956_
*1003 _0957_
*1004 _0958_
*1005 _0959_
*1006 _0960_
*1007 _0961_
*1008 _0962_
*1009 _0963_
*1010 _0964_
*1011 _0965_
*1012 _0966_
*1013 _0967_
*1014 _0968_
*1015 _0969_
*1016 _0970_
*1017 _0971_
*1018 _0972_
*1019 _0973_
*1020 _0974_
*1021 _0975_
*1022 _0976_
*1023 _0977_
*1024 _0978_
*1025 _0979_
*1026 _0980_
*1027 _0981_
*1028 clknet_0_clk
*1029 clknet_4_0_0_clk
*1030 clknet_4_10_0_clk
*1031 clknet_4_11_0_clk
*1032 clknet_4_12_0_clk
*1033 clknet_4_13_0_clk
*1034 clknet_4_14_0_clk
*1035 clknet_4_15_0_clk
*1036 clknet_4_1_0_clk
*1037 clknet_4_2_0_clk
*1038 clknet_4_3_0_clk
*1039 clknet_4_4_0_clk
*1040 clknet_4_5_0_clk
*1041 clknet_4_6_0_clk
*1042 clknet_4_7_0_clk
*1043 clknet_4_8_0_clk
*1044 clknet_4_9_0_clk
*1045 cpu\.comp_counter\[0\]
*1046 cpu\.comp_counter\[1\]
*1047 cpu\.comp_counter\[2\]
*1048 cpu\.curr_sc_tx
*1049 cpu\.dec\.aaa\[0\]
*1050 cpu\.dec\.aaa\[1\]
*1051 cpu\.dec\.aaa\[2\]
*1052 cpu\.dec\.addr_reg2\[0\]
*1053 cpu\.dec\.addr_reg2\[1\]
*1054 cpu\.dec\.addr_reg2\[2\]
*1055 cpu\.dec\.arg1_reg\[1\]
*1056 cpu\.dec\.arg1_reg\[2\]
*1057 cpu\.dec\.arg2_enc\[3\]
*1058 cpu\.dec\.arg2_enc\[4\]
*1059 cpu\.dec\.arg2_enc\[5\]
*1060 cpu\.dec\.b8
*1061 cpu\.dec\.d
*1062 cpu\.dec\.e
*1063 cpu\.dec\.imm_data_in\[0\]
*1064 cpu\.dec\.imm_data_in\[1\]
*1065 cpu\.dec\.imm_full\[10\]
*1066 cpu\.dec\.imm_full\[11\]
*1067 cpu\.dec\.imm_full\[12\]
*1068 cpu\.dec\.imm_full\[13\]
*1069 cpu\.dec\.imm_full\[14\]
*1070 cpu\.dec\.imm_full\[15\]
*1071 cpu\.dec\.imm_full\[2\]
*1072 cpu\.dec\.imm_full\[3\]
*1073 cpu\.dec\.imm_full\[4\]
*1074 cpu\.dec\.imm_full\[5\]
*1075 cpu\.dec\.imm_full\[6\]
*1076 cpu\.dec\.imm_full\[7\]
*1077 cpu\.dec\.imm_full\[8\]
*1078 cpu\.dec\.imm_full\[9\]
*1079 cpu\.dec\.inst_valid
*1080 cpu\.dec\.m
*1081 cpu\.dec\.rx_counter\[0\]
*1082 cpu\.dec\.rx_counter\[1\]
*1083 cpu\.dec\.rx_counter\[2\]
*1084 cpu\.dec\.rx_counter\[3\]
*1085 cpu\.dec\.rx_pins\[0\]
*1086 cpu\.dec\.rx_pins\[1\]
*1087 cpu\.dec\.sched\.alu\.arg2_01\[1\]
*1088 cpu\.dec\.sched\.alu\.carry
*1089 cpu\.dec\.sched\.alu\.flag_c
*1090 cpu\.dec\.sched\.alu\.flag_s
*1091 cpu\.dec\.sched\.alu\.flag_v
*1092 cpu\.dec\.sched\.alu\.flag_z
*1093 cpu\.dec\.sched\.alu\.last_ror1
*1094 cpu\.dec\.sched\.alu\.old_arg2_bit
*1095 cpu\.dec\.sched\.alu\.registers\.general_registers\.regs\[0\]\[0\]
*1096 cpu\.dec\.sched\.alu\.registers\.general_registers\.regs\[0\]\[1\]
*1097 cpu\.dec\.sched\.alu\.registers\.general_registers\.regs\[0\]\[2\]
*1098 cpu\.dec\.sched\.alu\.registers\.general_registers\.regs\[0\]\[3\]
*1099 cpu\.dec\.sched\.alu\.registers\.general_registers\.regs\[0\]\[4\]
*1100 cpu\.dec\.sched\.alu\.registers\.general_registers\.regs\[0\]\[5\]
*1101 cpu\.dec\.sched\.alu\.registers\.general_registers\.regs\[0\]\[6\]
*1102 cpu\.dec\.sched\.alu\.registers\.general_registers\.regs\[0\]\[7\]
*1103 cpu\.dec\.sched\.alu\.registers\.general_registers\.regs\[1\]\[0\]
*1104 cpu\.dec\.sched\.alu\.registers\.general_registers\.regs\[1\]\[1\]
*1105 cpu\.dec\.sched\.alu\.registers\.general_registers\.regs\[1\]\[2\]
*1106 cpu\.dec\.sched\.alu\.registers\.general_registers\.regs\[1\]\[3\]
*1107 cpu\.dec\.sched\.alu\.registers\.general_registers\.regs\[1\]\[4\]
*1108 cpu\.dec\.sched\.alu\.registers\.general_registers\.regs\[1\]\[5\]
*1109 cpu\.dec\.sched\.alu\.registers\.general_registers\.regs\[1\]\[6\]
*1110 cpu\.dec\.sched\.alu\.registers\.general_registers\.regs\[1\]\[7\]
*1111 cpu\.dec\.sched\.alu\.registers\.general_registers\.regs\[2\]\[0\]
*1112 cpu\.dec\.sched\.alu\.registers\.general_registers\.regs\[2\]\[1\]
*1113 cpu\.dec\.sched\.alu\.registers\.general_registers\.regs\[2\]\[2\]
*1114 cpu\.dec\.sched\.alu\.registers\.general_registers\.regs\[2\]\[3\]
*1115 cpu\.dec\.sched\.alu\.registers\.general_registers\.regs\[2\]\[4\]
*1116 cpu\.dec\.sched\.alu\.registers\.general_registers\.regs\[2\]\[5\]
*1117 cpu\.dec\.sched\.alu\.registers\.general_registers\.regs\[2\]\[6\]
*1118 cpu\.dec\.sched\.alu\.registers\.general_registers\.regs\[2\]\[7\]
*1119 cpu\.dec\.sched\.alu\.registers\.general_registers\.regs\[3\]\[0\]
*1120 cpu\.dec\.sched\.alu\.registers\.general_registers\.regs\[3\]\[1\]
*1121 cpu\.dec\.sched\.alu\.registers\.general_registers\.regs\[3\]\[2\]
*1122 cpu\.dec\.sched\.alu\.registers\.general_registers\.regs\[3\]\[3\]
*1123 cpu\.dec\.sched\.alu\.registers\.general_registers\.regs\[3\]\[4\]
*1124 cpu\.dec\.sched\.alu\.registers\.general_registers\.regs\[3\]\[5\]
*1125 cpu\.dec\.sched\.alu\.registers\.general_registers\.regs\[3\]\[6\]
*1126 cpu\.dec\.sched\.alu\.registers\.general_registers\.regs\[3\]\[7\]
*1127 cpu\.dec\.sched\.alu\.registers\.general_registers\.regs\[4\]\[0\]
*1128 cpu\.dec\.sched\.alu\.registers\.general_registers\.regs\[4\]\[1\]
*1129 cpu\.dec\.sched\.alu\.registers\.general_registers\.regs\[4\]\[2\]
*1130 cpu\.dec\.sched\.alu\.registers\.general_registers\.regs\[4\]\[3\]
*1131 cpu\.dec\.sched\.alu\.registers\.general_registers\.regs\[4\]\[4\]
*1132 cpu\.dec\.sched\.alu\.registers\.general_registers\.regs\[4\]\[5\]
*1133 cpu\.dec\.sched\.alu\.registers\.general_registers\.regs\[4\]\[6\]
*1134 cpu\.dec\.sched\.alu\.registers\.general_registers\.regs\[4\]\[7\]
*1135 cpu\.dec\.sched\.alu\.registers\.general_registers\.regs\[5\]\[0\]
*1136 cpu\.dec\.sched\.alu\.registers\.general_registers\.regs\[5\]\[1\]
*1137 cpu\.dec\.sched\.alu\.registers\.general_registers\.regs\[5\]\[2\]
*1138 cpu\.dec\.sched\.alu\.registers\.general_registers\.regs\[5\]\[3\]
*1139 cpu\.dec\.sched\.alu\.registers\.general_registers\.regs\[5\]\[4\]
*1140 cpu\.dec\.sched\.alu\.registers\.general_registers\.regs\[5\]\[5\]
*1141 cpu\.dec\.sched\.alu\.registers\.general_registers\.regs\[5\]\[6\]
*1142 cpu\.dec\.sched\.alu\.registers\.general_registers\.regs\[5\]\[7\]
*1143 cpu\.dec\.sched\.alu\.registers\.general_registers\.regs\[6\]\[0\]
*1144 cpu\.dec\.sched\.alu\.registers\.general_registers\.regs\[6\]\[1\]
*1145 cpu\.dec\.sched\.alu\.registers\.general_registers\.regs\[6\]\[2\]
*1146 cpu\.dec\.sched\.alu\.registers\.general_registers\.regs\[6\]\[3\]
*1147 cpu\.dec\.sched\.alu\.registers\.general_registers\.regs\[6\]\[4\]
*1148 cpu\.dec\.sched\.alu\.registers\.general_registers\.regs\[6\]\[5\]
*1149 cpu\.dec\.sched\.alu\.registers\.general_registers\.regs\[6\]\[6\]
*1150 cpu\.dec\.sched\.alu\.registers\.general_registers\.regs\[6\]\[7\]
*1151 cpu\.dec\.sched\.alu\.registers\.general_registers\.regs\[7\]\[0\]
*1152 cpu\.dec\.sched\.alu\.registers\.general_registers\.regs\[7\]\[1\]
*1153 cpu\.dec\.sched\.alu\.registers\.general_registers\.regs\[7\]\[2\]
*1154 cpu\.dec\.sched\.alu\.registers\.general_registers\.regs\[7\]\[3\]
*1155 cpu\.dec\.sched\.alu\.registers\.general_registers\.regs\[7\]\[4\]
*1156 cpu\.dec\.sched\.alu\.registers\.general_registers\.regs\[7\]\[5\]
*1157 cpu\.dec\.sched\.alu\.registers\.general_registers\.regs\[7\]\[6\]
*1158 cpu\.dec\.sched\.alu\.registers\.general_registers\.regs\[7\]\[7\]
*1159 cpu\.dec\.sched\.alu\.registers\.sp_register\.regs\[0\]
*1160 cpu\.dec\.sched\.alu\.registers\.sp_register\.regs\[1\]
*1161 cpu\.dec\.sched\.alu\.registers\.sp_register\.regs\[2\]
*1162 cpu\.dec\.sched\.alu\.registers\.sp_register\.regs\[3\]
*1163 cpu\.dec\.sched\.alu\.registers\.sp_register\.regs\[4\]
*1164 cpu\.dec\.sched\.alu\.registers\.sp_register\.regs\[5\]
*1165 cpu\.dec\.sched\.alu\.registers\.sp_register\.regs\[6\]
*1166 cpu\.dec\.sched\.alu\.registers\.sp_register\.regs\[7\]
*1167 cpu\.dec\.sched\.any_rotate_stage
*1168 cpu\.dec\.sched\.command_active
*1169 cpu\.dec\.sched\.imm16_available
*1170 cpu\.dec\.sched\.stage\[0\]
*1171 cpu\.dec\.sched\.tx_counter\[0\]
*1172 cpu\.dec\.sched\.tx_counter\[1\]
*1173 cpu\.dec\.sched\.tx_counter\[2\]
*1174 cpu\.dec\.sched\.tx_counter\[3\]
*1175 cpu\.dec\.stage
*1176 cpu\.dec\.z
*1177 cpu\.fifo\.entries\[1\]\[0\]
*1178 cpu\.fifo\.entries\[1\]\[1\]
*1179 cpu\.fifo\.entries\[2\]\[0\]
*1180 cpu\.fifo\.entries\[2\]\[1\]
*1181 cpu\.fifo\.entries\[3\]\[0\]
*1182 cpu\.fifo\.entries\[3\]\[1\]
*1183 cpu\.fifo\.num_entries\[0\]
*1184 cpu\.fifo\.num_entries\[1\]
*1185 cpu\.pref\.carry
*1186 cpu\.pref\.fifo\.last_entry\[0\]
*1187 cpu\.pref\.fifo\.last_entry\[10\]
*1188 cpu\.pref\.fifo\.last_entry\[11\]
*1189 cpu\.pref\.fifo\.last_entry\[12\]
*1190 cpu\.pref\.fifo\.last_entry\[13\]
*1191 cpu\.pref\.fifo\.last_entry\[14\]
*1192 cpu\.pref\.fifo\.last_entry\[15\]
*1193 cpu\.pref\.fifo\.last_entry\[1\]
*1194 cpu\.pref\.fifo\.last_entry\[2\]
*1195 cpu\.pref\.fifo\.last_entry\[3\]
*1196 cpu\.pref\.fifo\.last_entry\[4\]
*1197 cpu\.pref\.fifo\.last_entry\[5\]
*1198 cpu\.pref\.fifo\.last_entry\[6\]
*1199 cpu\.pref\.fifo\.last_entry\[7\]
*1200 cpu\.pref\.fifo\.last_entry\[8\]
*1201 cpu\.pref\.fifo\.last_entry\[9\]
*1202 cpu\.pref\.fifo\.last_valid
*1203 cpu\.pref\.fifo\.new_entry\[0\]
*1204 cpu\.pref\.fifo\.new_entry\[10\]
*1205 cpu\.pref\.fifo\.new_entry\[11\]
*1206 cpu\.pref\.fifo\.new_entry\[12\]
*1207 cpu\.pref\.fifo\.new_entry\[13\]
*1208 cpu\.pref\.fifo\.new_entry\[14\]
*1209 cpu\.pref\.fifo\.new_entry\[15\]
*1210 cpu\.pref\.fifo\.new_entry\[1\]
*1211 cpu\.pref\.fifo\.new_entry\[2\]
*1212 cpu\.pref\.fifo\.new_entry\[3\]
*1213 cpu\.pref\.fifo\.new_entry\[4\]
*1214 cpu\.pref\.fifo\.new_entry\[5\]
*1215 cpu\.pref\.fifo\.new_entry\[6\]
*1216 cpu\.pref\.fifo\.new_entry\[7\]
*1217 cpu\.pref\.fifo\.new_entry\[8\]
*1218 cpu\.pref\.fifo\.new_entry\[9\]
*1219 cpu\.pref\.num_flushed\[0\]
*1220 cpu\.pref\.num_flushed\[1\]
*1221 cpu\.pref\.num_prefetched\[0\]
*1222 cpu\.pref\.num_prefetched\[1\]
*1223 cpu\.pref\.pc\[0\]
*1224 cpu\.pref\.pc\[10\]
*1225 cpu\.pref\.pc\[11\]
*1226 cpu\.pref\.pc\[12\]
*1227 cpu\.pref\.pc\[13\]
*1228 cpu\.pref\.pc\[14\]
*1229 cpu\.pref\.pc\[15\]
*1230 cpu\.pref\.pc\[1\]
*1231 cpu\.pref\.pc\[2\]
*1232 cpu\.pref\.pc\[3\]
*1233 cpu\.pref\.pc\[4\]
*1234 cpu\.pref\.pc\[5\]
*1235 cpu\.pref\.pc\[6\]
*1236 cpu\.pref\.pc\[7\]
*1237 cpu\.pref\.pc\[8\]
*1238 cpu\.pref\.pc\[9\]
*1239 cpu\.pref\.sreg_full
*1240 cpu\.pref\.sum\[2\]
*1241 cpu\.sc_tx
*1242 net1
*1243 net100
*1244 net101
*1245 net102
*1246 net103
*1247 net104
*1248 net105
*1249 net106
*1250 net107
*1251 net108
*1252 net109
*1253 net110
*1254 net111
*1255 net112
*1256 net113
*1257 net114
*1258 net115
*1259 net116
*1260 net117
*1261 net118
*1262 net119
*1263 net120
*1264 net121
*1265 net122
*1266 net123
*1267 net124
*1268 net125
*1269 net126
*1270 net127
*1271 net128
*1272 net129
*1273 net130
*1274 net131
*1275 net132
*1276 net133
*1277 net134
*1278 net135
*1279 net136
*1280 net137
*1281 net138
*1282 net139
*1283 net140
*1284 net141
*1285 net142
*1286 net143
*1287 net144
*1288 net145
*1289 net146
*1290 net147
*1291 net148
*1292 net149
*1293 net150
*1294 net151
*1295 net152
*1296 net153
*1297 net154
*1298 net155
*1299 net156
*1300 net157
*1301 net158
*1302 net159
*1303 net160
*1304 net161
*1305 net162
*1306 net163
*1307 net164
*1308 net165
*1309 net166
*1310 net167
*1311 net168
*1312 net169
*1313 net170
*1314 net171
*1315 net172
*1316 net173
*1317 net174
*1318 net175
*1319 net176
*1320 net177
*1321 net178
*1322 net179
*1323 net180
*1324 net181
*1325 net182
*1326 net183
*1327 net184
*1328 net185
*1329 net186
*1330 net187
*1331 net188
*1332 net189
*1333 net190
*1334 net191
*1335 net192
*1336 net193
*1337 net194
*1338 net195
*1339 net196
*1340 net197
*1341 net2
*1342 net29
*1343 net3
*1344 net30
*1345 net31
*1346 net32
*1347 net33
*1348 net34
*1349 net35
*1350 net36
*1351 net37
*1352 net38
*1353 net39
*1354 net4
*1355 net40
*1356 net41
*1357 net42
*1358 net43
*1359 net44
*1360 net45
*1361 net46
*1362 net47
*1363 net48
*1364 net49
*1365 net5
*1366 net50
*1367 net51
*1368 net52
*1369 net53
*1370 net54
*1371 net55
*1372 net56
*1373 net57
*1374 net58
*1375 net59
*1376 net6
*1377 net60
*1378 net61
*1379 net62
*1380 net63
*1381 net64
*1382 net65
*1383 net66
*1384 net67
*1385 net68
*1386 net69
*1387 net7
*1388 net70
*1389 net71
*1390 net72
*1391 net73
*1392 net74
*1393 net75
*1394 net76
*1395 net77
*1396 net78
*1397 net79
*1398 net8
*1399 net80
*1400 net81
*1401 net82
*1402 net83
*1403 net84
*1404 net85
*1405 net86
*1406 net87
*1407 net88
*1408 net89
*1409 net90
*1410 net91
*1411 net92
*1412 net93
*1413 net94
*1414 net95
*1415 net96
*1416 net97
*1417 net98
*1418 net99
*1419 ANTENNA_1
*1420 ANTENNA_10
*1421 ANTENNA_11
*1422 ANTENNA_12
*1423 ANTENNA_13
*1424 ANTENNA_14
*1425 ANTENNA_15
*1426 ANTENNA_16
*1427 ANTENNA_17
*1428 ANTENNA_18
*1429 ANTENNA_19
*1430 ANTENNA_2
*1431 ANTENNA_20
*1432 ANTENNA_21
*1433 ANTENNA_22
*1434 ANTENNA_23
*1435 ANTENNA_24
*1436 ANTENNA_3
*1437 ANTENNA_4
*1438 ANTENNA_5
*1439 ANTENNA_6
*1440 ANTENNA_7
*1441 ANTENNA_8
*1442 ANTENNA_9
*1443 FILLER_0_0_111
*1444 FILLER_0_0_113
*1445 FILLER_0_0_136
*1446 FILLER_0_0_159
*1447 FILLER_0_0_222
*1448 FILLER_0_0_250
*1449 FILLER_0_0_278
*1450 FILLER_0_0_297
*1451 FILLER_0_0_3
*1452 FILLER_0_0_333
*1453 FILLER_0_0_94
*1454 FILLER_0_10_113
*1455 FILLER_0_10_118
*1456 FILLER_0_10_132
*1457 FILLER_0_10_197
*1458 FILLER_0_10_284
*1459 FILLER_0_10_29
*1460 FILLER_0_10_3
*1461 FILLER_0_10_307
*1462 FILLER_0_10_334
*1463 FILLER_0_10_55
*1464 FILLER_0_10_85
*1465 FILLER_0_11_104
*1466 FILLER_0_11_122
*1467 FILLER_0_11_132
*1468 FILLER_0_11_136
*1469 FILLER_0_11_160
*1470 FILLER_0_11_167
*1471 FILLER_0_11_176
*1472 FILLER_0_11_211
*1473 FILLER_0_11_223
*1474 FILLER_0_11_241
*1475 FILLER_0_11_252
*1476 FILLER_0_11_3
*1477 FILLER_0_11_334
*1478 FILLER_0_11_46
*1479 FILLER_0_11_71
*1480 FILLER_0_12_109
*1481 FILLER_0_12_121
*1482 FILLER_0_12_133
*1483 FILLER_0_12_139
*1484 FILLER_0_12_168
*1485 FILLER_0_12_187
*1486 FILLER_0_12_214
*1487 FILLER_0_12_232
*1488 FILLER_0_12_271
*1489 FILLER_0_12_334
*1490 FILLER_0_12_80
*1491 FILLER_0_12_85
*1492 FILLER_0_12_95
*1493 FILLER_0_13_107
*1494 FILLER_0_13_111
*1495 FILLER_0_13_133
*1496 FILLER_0_13_148
*1497 FILLER_0_13_160
*1498 FILLER_0_13_169
*1499 FILLER_0_13_173
*1500 FILLER_0_13_218
*1501 FILLER_0_13_270
*1502 FILLER_0_13_3
*1503 FILLER_0_13_54
*1504 FILLER_0_13_95
*1505 FILLER_0_14_121
*1506 FILLER_0_14_130
*1507 FILLER_0_14_138
*1508 FILLER_0_14_145
*1509 FILLER_0_14_162
*1510 FILLER_0_14_170
*1511 FILLER_0_14_187
*1512 FILLER_0_14_210
*1513 FILLER_0_14_235
*1514 FILLER_0_14_27
*1515 FILLER_0_14_288
*1516 FILLER_0_14_307
*1517 FILLER_0_14_315
*1518 FILLER_0_14_37
*1519 FILLER_0_14_83
*1520 FILLER_0_14_91
*1521 FILLER_0_14_99
*1522 FILLER_0_15_113
*1523 FILLER_0_15_169
*1524 FILLER_0_15_177
*1525 FILLER_0_15_202
*1526 FILLER_0_15_270
*1527 FILLER_0_15_315
*1528 FILLER_0_15_333
*1529 FILLER_0_15_47
*1530 FILLER_0_15_6
*1531 FILLER_0_15_61
*1532 FILLER_0_15_88
*1533 FILLER_0_15_96
*1534 FILLER_0_16_103
*1535 FILLER_0_16_115
*1536 FILLER_0_16_119
*1537 FILLER_0_16_128
*1538 FILLER_0_16_138
*1539 FILLER_0_16_141
*1540 FILLER_0_16_153
*1541 FILLER_0_16_165
*1542 FILLER_0_16_17
*1543 FILLER_0_16_176
*1544 FILLER_0_16_186
*1545 FILLER_0_16_197
*1546 FILLER_0_16_201
*1547 FILLER_0_16_215
*1548 FILLER_0_16_26
*1549 FILLER_0_16_303
*1550 FILLER_0_16_333
*1551 FILLER_0_16_42
*1552 FILLER_0_16_60
*1553 FILLER_0_16_82
*1554 FILLER_0_16_85
*1555 FILLER_0_16_93
*1556 FILLER_0_17_107
*1557 FILLER_0_17_111
*1558 FILLER_0_17_113
*1559 FILLER_0_17_117
*1560 FILLER_0_17_124
*1561 FILLER_0_17_136
*1562 FILLER_0_17_144
*1563 FILLER_0_17_157
*1564 FILLER_0_17_165
*1565 FILLER_0_17_177
*1566 FILLER_0_17_19
*1567 FILLER_0_17_206
*1568 FILLER_0_17_222
*1569 FILLER_0_17_228
*1570 FILLER_0_17_281
*1571 FILLER_0_17_3
*1572 FILLER_0_17_301
*1573 FILLER_0_17_318
*1574 FILLER_0_17_36
*1575 FILLER_0_17_51
*1576 FILLER_0_17_79
*1577 FILLER_0_17_91
*1578 FILLER_0_17_99
*1579 FILLER_0_18_100
*1580 FILLER_0_18_116
*1581 FILLER_0_18_122
*1582 FILLER_0_18_134
*1583 FILLER_0_18_139
*1584 FILLER_0_18_157
*1585 FILLER_0_18_177
*1586 FILLER_0_18_194
*1587 FILLER_0_18_197
*1588 FILLER_0_18_205
*1589 FILLER_0_18_213
*1590 FILLER_0_18_233
*1591 FILLER_0_18_26
*1592 FILLER_0_18_273
*1593 FILLER_0_18_309
*1594 FILLER_0_18_61
*1595 FILLER_0_18_65
*1596 FILLER_0_18_80
*1597 FILLER_0_18_96
*1598 FILLER_0_19_105
*1599 FILLER_0_19_128
*1600 FILLER_0_19_140
*1601 FILLER_0_19_15
*1602 FILLER_0_19_152
*1603 FILLER_0_19_164
*1604 FILLER_0_19_208
*1605 FILLER_0_19_223
*1606 FILLER_0_19_228
*1607 FILLER_0_19_232
*1608 FILLER_0_19_243
*1609 FILLER_0_19_281
*1610 FILLER_0_19_29
*1611 FILLER_0_19_290
*1612 FILLER_0_19_3
*1613 FILLER_0_19_334
*1614 FILLER_0_19_38
*1615 FILLER_0_19_50
*1616 FILLER_0_19_64
*1617 FILLER_0_19_78
*1618 FILLER_0_19_85
*1619 FILLER_0_19_97
*1620 FILLER_0_1_131
*1621 FILLER_0_1_213
*1622 FILLER_0_1_281
*1623 FILLER_0_1_299
*1624 FILLER_0_1_3
*1625 FILLER_0_1_303
*1626 FILLER_0_1_333
*1627 FILLER_0_1_34
*1628 FILLER_0_1_60
*1629 FILLER_0_1_78
*1630 FILLER_0_1_95
*1631 FILLER_0_20_109
*1632 FILLER_0_20_123
*1633 FILLER_0_20_14
*1634 FILLER_0_20_141
*1635 FILLER_0_20_147
*1636 FILLER_0_20_158
*1637 FILLER_0_20_166
*1638 FILLER_0_20_175
*1639 FILLER_0_20_187
*1640 FILLER_0_20_195
*1641 FILLER_0_20_197
*1642 FILLER_0_20_205
*1643 FILLER_0_20_214
*1644 FILLER_0_20_226
*1645 FILLER_0_20_233
*1646 FILLER_0_20_240
*1647 FILLER_0_20_281
*1648 FILLER_0_20_3
*1649 FILLER_0_20_307
*1650 FILLER_0_20_309
*1651 FILLER_0_20_44
*1652 FILLER_0_20_58
*1653 FILLER_0_20_70
*1654 FILLER_0_20_80
*1655 FILLER_0_20_91
*1656 FILLER_0_21_107
*1657 FILLER_0_21_11
*1658 FILLER_0_21_111
*1659 FILLER_0_21_113
*1660 FILLER_0_21_121
*1661 FILLER_0_21_125
*1662 FILLER_0_21_131
*1663 FILLER_0_21_143
*1664 FILLER_0_21_155
*1665 FILLER_0_21_16
*1666 FILLER_0_21_167
*1667 FILLER_0_21_169
*1668 FILLER_0_21_177
*1669 FILLER_0_21_183
*1670 FILLER_0_21_187
*1671 FILLER_0_21_191
*1672 FILLER_0_21_197
*1673 FILLER_0_21_206
*1674 FILLER_0_21_218
*1675 FILLER_0_21_239
*1676 FILLER_0_21_245
*1677 FILLER_0_21_28
*1678 FILLER_0_21_293
*1679 FILLER_0_21_3
*1680 FILLER_0_21_334
*1681 FILLER_0_21_39
*1682 FILLER_0_21_51