*SPEF "ieee 1481-1999"
*DESIGN "tt_um_toivoh_basilisc_2816"
*DATE "10:03:35 Sunday May 12, 2024"
*VENDOR "The OpenROAD Project"
*PROGRAM "OpenROAD"
*VERSION "da0053d7b0014ab9c87ea148875ff6c2a0f9b658"
*DESIGN_FLOW "NAME_SCOPE LOCAL" "PIN_CAP NONE"
*DIVIDER /
*DELIMITER :
*BUS_DELIMITER []
*T_UNIT 1 NS
*C_UNIT 1 PF
*R_UNIT 1 OHM
*L_UNIT 1 HENRY

*NAME_MAP
*3 clk
*4 ena
*5 rst_n
*6 ui_in[0]
*7 ui_in[1]
*8 ui_in[2]
*9 ui_in[3]
*10 ui_in[4]
*11 ui_in[5]
*12 ui_in[6]
*13 ui_in[7]
*14 uio_in[0]
*15 uio_in[1]
*16 uio_in[2]
*17 uio_in[3]
*18 uio_in[4]
*19 uio_in[5]
*20 uio_in[6]
*21 uio_in[7]
*22 net8
*23 net9
*24 net10
*25 net11
*26 net12
*27 net13
*28 net14
*29 net15
*30 net16
*31 net17
*32 net18
*33 net19
*34 net20
*35 net21
*36 net22
*37 net23
*38 uo_out[0]
*39 uo_out[1]
*40 uo_out[2]
*41 net24
*42 net25
*43 net26
*44 net27
*45 net28
*46 _0000_
*47 _0001_
*48 _0002_
*49 _0003_
*50 _0004_
*51 _0005_
*52 _0006_
*53 _0007_
*54 _0008_
*55 _0009_
*56 _0010_
*57 _0011_
*58 _0012_
*59 _0013_
*60 _0014_
*61 _0015_
*62 _0016_
*63 _0017_
*64 _0018_
*65 _0019_
*66 _0020_
*67 _0021_
*68 _0022_
*69 _0023_
*70 _0024_
*71 _0025_
*72 _0026_
*73 _0027_
*74 _0028_
*75 _0029_
*76 _0030_
*77 _0031_
*78 _0032_
*79 _0033_
*80 _0034_
*81 _0035_
*82 _0036_
*83 _0037_
*84 _0038_
*85 _0039_
*86 _0040_
*87 _0041_
*88 _0042_
*89 _0043_
*90 _0044_
*91 _0045_
*92 _0046_
*93 _0047_
*94 _0048_
*95 _0049_
*96 _0050_
*97 _0051_
*98 _0052_
*99 _0053_
*100 _0054_
*101 _0055_
*102 _0056_
*103 _0057_
*104 _0058_
*105 _0059_
*106 _0060_
*107 _0061_
*108 _0062_
*109 _0063_
*110 _0064_
*111 _0065_
*112 _0066_
*113 _0067_
*114 _0068_
*115 _0069_
*116 _0070_
*117 _0071_
*118 _0072_
*119 _0073_
*120 _0074_
*121 _0075_
*122 _0076_
*123 _0077_
*124 _0078_
*125 _0079_
*126 _0080_
*127 _0081_
*128 _0082_
*129 _0083_
*130 _0084_
*131 _0085_
*132 _0086_
*133 _0087_
*134 _0088_
*135 _0089_
*136 _0090_
*137 _0091_
*138 _0092_
*139 _0093_
*140 _0094_
*141 _0095_
*142 _0096_
*143 _0097_
*144 _0098_
*145 _0099_
*146 _0100_
*147 _0101_
*148 _0102_
*149 _0103_
*150 _0104_
*151 _0105_
*152 _0106_
*153 _0107_
*154 _0108_
*155 _0109_
*156 _0110_
*157 _0111_
*158 _0112_
*159 _0113_
*160 _0114_
*161 _0115_
*162 _0116_
*163 _0117_
*164 _0118_
*165 _0119_
*166 _0120_
*167 _0121_
*168 _0122_
*169 _0123_
*170 _0124_
*171 _0125_
*172 _0126_
*173 _0127_
*174 _0128_
*175 _0129_
*176 _0130_
*177 _0131_
*178 _0132_
*179 _0133_
*180 _0134_
*181 _0135_
*182 _0136_
*183 _0137_
*184 _0138_
*185 _0139_
*186 _0140_
*187 _0141_
*188 _0142_
*189 _0143_
*190 _0144_
*191 _0145_
*192 _0146_
*193 _0147_
*194 _0148_
*195 _0149_
*196 _0150_
*197 _0151_
*198 _0152_
*199 _0153_
*200 _0154_
*201 _0155_
*202 _0156_
*203 _0157_
*204 _0158_
*205 _0159_
*206 _0160_
*207 _0161_
*208 _0162_
*209 _0163_
*210 _0164_
*211 _0165_
*212 _0166_
*213 _0167_
*214 _0168_
*215 _0169_
*216 _0170_
*217 _0171_
*218 _0172_
*219 _0173_
*220 _0174_
*221 _0175_
*222 _0176_
*223 _0177_
*224 _0178_
*225 _0179_
*226 _0180_
*227 _0181_
*228 _0182_
*229 _0183_
*230 _0184_
*231 _0185_
*232 _0186_
*233 _0187_
*234 _0188_
*235 _0189_
*236 _0190_
*237 _0191_
*238 _0192_
*239 _0193_
*240 _0194_
*241 _0195_
*242 _0196_
*243 _0197_
*244 _0198_
*245 _0199_
*246 _0200_
*247 _0201_
*248 _0202_
*249 _0203_
*250 _0204_
*251 _0205_
*252 _0206_
*253 _0207_
*254 _0208_
*255 _0209_
*256 _0210_
*257 _0211_
*258 _0212_
*259 _0213_
*260 _0214_
*261 _0215_
*262 _0216_
*263 _0217_
*264 _0218_
*265 _0219_
*266 _0220_
*267 _0221_
*268 _0222_
*269 _0223_
*270 _0224_
*271 _0225_
*272 _0226_
*273 _0227_
*274 _0228_
*275 _0229_
*276 _0230_
*277 _0231_
*278 _0232_
*279 _0233_
*280 _0234_
*281 _0235_
*282 _0236_
*283 _0237_
*284 _0238_
*285 _0239_
*286 _0240_
*287 _0241_
*288 _0242_
*289 _0243_
*290 _0244_
*291 _0245_
*292 _0246_
*293 _0247_
*294 _0248_
*295 _0249_
*296 _0250_
*297 _0251_
*298 _0252_
*299 _0253_
*300 _0254_
*301 _0255_
*302 _0256_
*303 _0257_
*304 _0258_
*305 _0259_
*306 _0260_
*307 _0261_
*308 _0262_
*309 _0263_
*310 _0264_
*311 _0265_
*312 _0266_
*313 _0267_
*314 _0268_
*315 _0269_
*316 _0270_
*317 _0271_
*318 _0272_
*319 _0273_
*320 _0274_
*321 _0275_
*322 _0276_
*323 _0277_
*324 _0278_
*325 _0279_
*326 _0280_
*327 _0281_
*328 _0282_
*329 _0283_
*330 _0284_
*331 _0285_
*332 _0286_
*333 _0287_
*334 _0288_
*335 _0289_
*336 _0290_
*337 _0291_
*338 _0292_
*339 _0293_
*340 _0294_
*341 _0295_
*342 _0296_
*343 _0297_
*344 _0298_
*345 _0299_
*346 _0300_
*347 _0301_
*348 _0302_
*349 _0303_
*350 _0304_
*351 _0305_
*352 _0306_
*353 _0307_
*354 _0308_
*355 _0309_
*356 _0310_
*357 _0311_
*358 _0312_
*359 _0313_
*360 _0314_
*361 _0315_
*362 _0316_
*363 _0317_
*364 _0318_
*365 _0319_
*366 _0320_
*367 _0321_
*368 _0322_
*369 _0323_
*370 _0324_
*371 _0325_
*372 _0326_
*373 _0327_
*374 _0328_
*375 _0329_
*376 _0330_
*377 _0331_
*378 _0332_
*379 _0333_
*380 _0334_
*381 _0335_
*382 _0336_
*383 _0337_
*384 _0338_
*385 _0339_
*386 _0340_
*387 _0341_
*388 _0342_
*389 _0343_
*390 _0344_
*391 _0345_
*392 _0346_
*393 _0347_
*394 _0348_
*395 _0349_
*396 _0350_
*397 _0351_
*398 _0352_
*399 _0353_
*400 _0354_
*401 _0355_
*402 _0356_
*403 _0357_
*404 _0358_
*405 _0359_
*406 _0360_
*407 _0361_
*408 _0362_
*409 _0363_
*410 _0364_
*411 _0365_
*412 _0366_
*413 _0367_
*414 _0368_
*415 _0369_
*416 _0370_
*417 _0371_
*418 _0372_
*419 _0373_
*420 _0374_
*421 _0375_
*422 _0376_
*423 _0377_
*424 _0378_
*425 _0379_
*426 _0380_
*427 _0381_
*428 _0382_
*429 _0383_
*430 _0384_
*431 _0385_
*432 _0386_
*433 _0387_
*434 _0388_
*435 _0389_
*436 _0390_
*437 _0391_
*438 _0392_
*439 _0393_
*440 _0394_
*441 _0395_
*442 _0396_
*443 _0397_
*444 _0398_
*445 _0399_
*446 _0400_
*447 _0401_
*448 _0402_
*449 _0403_
*450 _0404_
*451 _0405_
*452 _0406_
*453 _0407_
*454 _0408_
*455 _0409_
*456 _0410_
*457 _0411_
*458 _0412_
*459 _0413_
*460 _0414_
*461 _0415_
*462 _0416_
*463 _0417_
*464 _0418_
*465 _0419_
*466 _0420_
*467 _0421_
*468 _0422_
*469 _0423_
*470 _0424_
*471 _0425_
*472 _0426_
*473 _0427_
*474 _0428_
*475 _0429_
*476 _0430_
*477 _0431_
*478 _0432_
*479 _0433_
*480 _0434_
*481 _0435_
*482 _0436_
*483 _0437_
*484 _0438_
*485 _0439_
*486 _0440_
*487 _0441_
*488 _0442_
*489 _0443_
*490 _0444_
*491 _0445_
*492 _0446_
*493 _0447_
*494 _0448_
*495 _0449_
*496 _0450_
*497 _0451_
*498 _0452_
*499 _0453_
*500 _0454_
*501 _0455_
*502 _0456_
*503 _0457_
*504 _0458_
*505 _0459_
*506 _0460_
*507 _0461_
*508 _0462_
*509 _0463_
*510 _0464_
*511 _0465_
*512 _0466_
*513 _0467_
*514 _0468_
*515 _0469_
*516 _0470_
*517 _0471_
*518 _0472_
*519 _0473_
*520 _0474_
*521 _0475_
*522 _0476_
*523 _0477_
*524 _0478_
*525 _0479_
*526 _0480_
*527 _0481_
*528 _0482_
*529 _0483_
*530 _0484_
*531 _0485_
*532 _0486_
*533 _0487_
*534 _0488_
*535 _0489_
*536 _0490_
*537 _0491_
*538 _0492_
*539 _0493_
*540 _0494_
*541 _0495_
*542 _0496_
*543 _0497_
*544 _0498_
*545 _0499_
*546 _0500_
*547 _0501_
*548 _0502_
*549 _0503_
*550 _0504_
*551 _0505_
*552 _0506_
*553 _0507_
*554 _0508_
*555 _0509_
*556 _0510_
*557 _0511_
*558 _0512_
*559 _0513_
*560 _0514_
*561 _0515_
*562 _0516_
*563 _0517_
*564 _0518_
*565 _0519_
*566 _0520_
*567 _0521_
*568 _0522_
*569 _0523_
*570 _0524_
*571 _0525_
*572 _0526_
*573 _0527_
*574 _0528_
*575 _0529_
*576 _0530_
*577 _0531_
*578 _0532_
*579 _0533_
*580 _0534_
*581 _0535_
*582 _0536_
*583 _0537_
*584 _0538_
*585 _0539_
*586 _0540_
*587 _0541_
*588 _0542_
*589 _0543_
*590 _0544_
*591 _0545_
*592 _0546_
*593 _0547_
*594 _0548_
*595 _0549_
*596 _0550_
*597 _0551_
*598 _0552_
*599 _0553_
*600 _0554_
*601 _0555_
*602 _0556_
*603 _0557_
*604 _0558_
*605 _0559_
*606 _0560_
*607 _0561_
*608 _0562_
*609 _0563_
*610 _0564_
*611 _0565_
*612 _0566_
*613 _0567_
*614 _0568_
*615 _0569_
*616 _0570_
*617 _0571_
*618 _0572_
*619 _0573_
*620 _0574_
*621 _0575_
*622 _0576_
*623 _0577_
*624 _0578_
*625 _0579_
*626 _0580_
*627 _0581_
*628 _0582_
*629 _0583_
*630 _0584_
*631 _0585_
*632 _0586_
*633 _0587_
*634 _0588_
*635 _0589_
*636 _0590_
*637 _0591_
*638 _0592_
*639 _0593_
*640 _0594_
*641 _0595_
*642 _0596_
*643 _0597_
*644 _0598_
*645 _0599_
*646 _0600_
*647 _0601_
*648 _0602_
*649 _0603_
*650 _0604_
*651 _0605_
*652 _0606_
*653 _0607_
*654 _0608_
*655 _0609_
*656 _0610_
*657 _0611_
*658 _0612_
*659 _0613_
*660 _0614_
*661 _0615_
*662 _0616_
*663 _0617_
*664 _0618_
*665 _0619_
*666 _0620_
*667 _0621_
*668 _0622_
*669 _0623_
*670 _0624_
*671 _0625_
*672 _0626_
*673 _0627_
*674 _0628_
*675 _0629_
*676 _0630_
*677 _0631_
*678 _0632_
*679 _0633_
*680 _0634_
*681 _0635_
*682 _0636_
*683 _0637_
*684 _0638_
*685 _0639_
*686 _0640_
*687 _0641_
*688 _0642_
*689 _0643_
*690 _0644_
*691 _0645_
*692 _0646_
*693 _0647_
*694 _0648_
*695 _0649_
*696 _0650_
*697 _0651_
*698 _0652_
*699 _0653_
*700 _0654_
*701 _0655_
*702 _0656_
*703 _0657_
*704 _0658_
*705 _0659_
*706 _0660_
*707 _0661_
*708 _0662_
*709 _0663_
*710 _0664_
*711 _0665_
*712 _0666_
*713 _0667_
*714 _0668_
*715 _0669_
*716 _0670_
*717 _0671_
*718 _0672_
*719 _0673_
*720 _0674_
*721 _0675_
*722 _0676_
*723 _0677_
*724 _0678_
*725 _0679_
*726 _0680_
*727 _0681_
*728 _0682_
*729 _0683_
*730 _0684_
*731 _0685_
*732 _0686_
*733 _0687_
*734 _0688_
*735 _0689_
*736 _0690_
*737 _0691_
*738 _0692_
*739 _0693_
*740 _0694_
*741 _0695_
*742 _0696_
*743 _0697_
*744 _0698_
*745 _0699_
*746 _0700_
*747 _0701_
*748 _0702_
*749 _0703_
*750 _0704_
*751 _0705_
*752 _0706_
*753 _0707_
*754 _0708_
*755 _0709_
*756 _0710_
*757 _0711_
*758 _0712_
*759 _0713_
*760 _0714_
*761 _0715_
*762 _0716_
*763 _0717_
*764 _0718_
*765 _0719_
*766 _0720_
*767 _0721_
*768 _0722_
*769 _0723_
*770 _0724_
*771 _0725_
*772 _0726_
*773 _0727_
*774 _0728_
*775 _0729_
*776 _0730_
*777 _0731_
*778 _0732_
*779 _0733_
*780 _0734_
*781 _0735_
*782 _0736_
*783 _0737_
*784 _0738_
*785 _0739_
*786 _0740_
*787 _0741_
*788 _0742_
*789 _0743_
*790 _0744_
*791 _0745_
*792 _0746_
*793 _0747_
*794 _0748_
*795 _0749_
*796 _0750_
*797 _0751_
*798 _0752_
*799 _0753_
*800 _0754_
*801 _0755_
*802 _0756_
*803 _0757_
*804 _0758_
*805 _0759_
*806 _0760_
*807 _0761_
*808 clknet_0_clk
*809 clknet_4_0_0_clk
*810 clknet_4_10_0_clk
*811 clknet_4_11_0_clk
*812 clknet_4_12_0_clk
*813 clknet_4_13_0_clk
*814 clknet_4_14_0_clk
*815 clknet_4_15_0_clk
*816 clknet_4_1_0_clk
*817 clknet_4_2_0_clk
*818 clknet_4_3_0_clk
*819 clknet_4_4_0_clk
*820 clknet_4_5_0_clk
*821 clknet_4_6_0_clk
*822 clknet_4_7_0_clk
*823 clknet_4_8_0_clk
*824 clknet_4_9_0_clk
*825 cpu\.comp_counter\[0\]
*826 cpu\.comp_counter\[1\]
*827 cpu\.comp_counter\[2\]
*828 cpu\.curr_sc_tx
*829 cpu\.dec\.aaa\[0\]
*830 cpu\.dec\.aaa\[1\]
*831 cpu\.dec\.aaa\[2\]
*832 cpu\.dec\.addr_reg2\[0\]
*833 cpu\.dec\.addr_reg2\[1\]
*834 cpu\.dec\.addr_reg2\[2\]
*835 cpu\.dec\.arg1_reg\[1\]
*836 cpu\.dec\.arg1_reg\[2\]
*837 cpu\.dec\.arg2_enc\[3\]
*838 cpu\.dec\.arg2_enc\[4\]
*839 cpu\.dec\.arg2_enc\[5\]
*840 cpu\.dec\.b8
*841 cpu\.dec\.d
*842 cpu\.dec\.e
*843 cpu\.dec\.imm_data_in\[0\]
*844 cpu\.dec\.imm_data_in\[1\]
*845 cpu\.dec\.inst_valid
*846 cpu\.dec\.m
*847 cpu\.dec\.pc_data_out\[0\]
*848 cpu\.dec\.pc_data_out\[1\]
*849 cpu\.dec\.prefetch_idle
*850 cpu\.dec\.rx_counter\[0\]
*851 cpu\.dec\.rx_counter\[1\]
*852 cpu\.dec\.rx_counter\[2\]
*853 cpu\.dec\.rx_counter\[3\]
*854 cpu\.dec\.rx_pins\[0\]
*855 cpu\.dec\.rx_pins\[1\]
*856 cpu\.dec\.sched\.addr_lsb
*857 cpu\.dec\.sched\.alu\.arg2_01\[1\]
*858 cpu\.dec\.sched\.alu\.carry
*859 cpu\.dec\.sched\.alu\.flag_c
*860 cpu\.dec\.sched\.alu\.flag_s
*861 cpu\.dec\.sched\.alu\.flag_v
*862 cpu\.dec\.sched\.alu\.flag_z
*863 cpu\.dec\.sched\.alu\.next_carry
*864 cpu\.dec\.sched\.alu\.old_arg2_bit
*865 cpu\.dec\.sched\.alu\.registers\.regs\[0\]\[0\]
*866 cpu\.dec\.sched\.alu\.registers\.regs\[0\]\[1\]
*867 cpu\.dec\.sched\.alu\.registers\.regs\[0\]\[2\]
*868 cpu\.dec\.sched\.alu\.registers\.regs\[0\]\[3\]
*869 cpu\.dec\.sched\.alu\.registers\.regs\[0\]\[4\]
*870 cpu\.dec\.sched\.alu\.registers\.regs\[0\]\[5\]
*871 cpu\.dec\.sched\.alu\.registers\.regs\[0\]\[6\]
*872 cpu\.dec\.sched\.alu\.registers\.regs\[0\]\[7\]
*873 cpu\.dec\.sched\.alu\.registers\.regs\[1\]\[0\]
*874 cpu\.dec\.sched\.alu\.registers\.regs\[1\]\[1\]
*875 cpu\.dec\.sched\.alu\.registers\.regs\[1\]\[2\]
*876 cpu\.dec\.sched\.alu\.registers\.regs\[1\]\[3\]
*877 cpu\.dec\.sched\.alu\.registers\.regs\[1\]\[4\]
*878 cpu\.dec\.sched\.alu\.registers\.regs\[1\]\[5\]
*879 cpu\.dec\.sched\.alu\.registers\.regs\[1\]\[6\]
*880 cpu\.dec\.sched\.alu\.registers\.regs\[1\]\[7\]
*881 cpu\.dec\.sched\.alu\.registers\.regs\[2\]\[0\]
*882 cpu\.dec\.sched\.alu\.registers\.regs\[2\]\[1\]
*883 cpu\.dec\.sched\.alu\.registers\.regs\[2\]\[2\]
*884 cpu\.dec\.sched\.alu\.registers\.regs\[2\]\[3\]
*885 cpu\.dec\.sched\.alu\.registers\.regs\[2\]\[4\]
*886 cpu\.dec\.sched\.alu\.registers\.regs\[2\]\[5\]
*887 cpu\.dec\.sched\.alu\.registers\.regs\[2\]\[6\]
*888 cpu\.dec\.sched\.alu\.registers\.regs\[2\]\[7\]
*889 cpu\.dec\.sched\.alu\.registers\.regs\[3\]\[0\]
*890 cpu\.dec\.sched\.alu\.registers\.regs\[3\]\[1\]
*891 cpu\.dec\.sched\.alu\.registers\.regs\[3\]\[2\]
*892 cpu\.dec\.sched\.alu\.registers\.regs\[3\]\[3\]
*893 cpu\.dec\.sched\.alu\.registers\.regs\[3\]\[4\]
*894 cpu\.dec\.sched\.alu\.registers\.regs\[3\]\[5\]
*895 cpu\.dec\.sched\.alu\.registers\.regs\[3\]\[6\]
*896 cpu\.dec\.sched\.alu\.registers\.regs\[3\]\[7\]
*897 cpu\.dec\.sched\.alu\.registers\.regs\[4\]\[0\]
*898 cpu\.dec\.sched\.alu\.registers\.regs\[4\]\[1\]
*899 cpu\.dec\.sched\.alu\.registers\.regs\[4\]\[2\]
*900 cpu\.dec\.sched\.alu\.registers\.regs\[4\]\[3\]
*901 cpu\.dec\.sched\.alu\.registers\.regs\[4\]\[4\]
*902 cpu\.dec\.sched\.alu\.registers\.regs\[4\]\[5\]
*903 cpu\.dec\.sched\.alu\.registers\.regs\[4\]\[6\]
*904 cpu\.dec\.sched\.alu\.registers\.regs\[4\]\[7\]
*905 cpu\.dec\.sched\.alu\.registers\.regs\[5\]\[0\]
*906 cpu\.dec\.sched\.alu\.registers\.regs\[5\]\[1\]
*907 cpu\.dec\.sched\.alu\.registers\.regs\[5\]\[2\]
*908 cpu\.dec\.sched\.alu\.registers\.regs\[5\]\[3\]
*909 cpu\.dec\.sched\.alu\.registers\.regs\[5\]\[4\]
*910 cpu\.dec\.sched\.alu\.registers\.regs\[5\]\[5\]
*911 cpu\.dec\.sched\.alu\.registers\.regs\[5\]\[6\]
*912 cpu\.dec\.sched\.alu\.registers\.regs\[5\]\[7\]
*913 cpu\.dec\.sched\.alu\.registers\.regs\[6\]\[0\]
*914 cpu\.dec\.sched\.alu\.registers\.regs\[6\]\[1\]
*915 cpu\.dec\.sched\.alu\.registers\.regs\[6\]\[2\]
*916 cpu\.dec\.sched\.alu\.registers\.regs\[6\]\[3\]
*917 cpu\.dec\.sched\.alu\.registers\.regs\[6\]\[4\]
*918 cpu\.dec\.sched\.alu\.registers\.regs\[6\]\[5\]
*919 cpu\.dec\.sched\.alu\.registers\.regs\[6\]\[6\]
*920 cpu\.dec\.sched\.alu\.registers\.regs\[6\]\[7\]
*921 cpu\.dec\.sched\.alu\.registers\.regs\[7\]\[0\]
*922 cpu\.dec\.sched\.alu\.registers\.regs\[7\]\[1\]
*923 cpu\.dec\.sched\.alu\.registers\.regs\[7\]\[2\]
*924 cpu\.dec\.sched\.alu\.registers\.regs\[7\]\[3\]
*925 cpu\.dec\.sched\.alu\.registers\.regs\[7\]\[4\]
*926 cpu\.dec\.sched\.alu\.registers\.regs\[7\]\[5\]
*927 cpu\.dec\.sched\.alu\.registers\.regs\[7\]\[6\]
*928 cpu\.dec\.sched\.alu\.registers\.regs\[7\]\[7\]
*929 cpu\.dec\.sched\.command_active
*930 cpu\.dec\.sched\.last_data_out\[0\]
*931 cpu\.dec\.sched\.last_data_out\[1\]
*932 cpu\.dec\.sched\.stage
*933 cpu\.dec\.sched\.tx_counter\[0\]
*934 cpu\.dec\.sched\.tx_counter\[1\]
*935 cpu\.dec\.sched\.tx_counter\[2\]
*936 cpu\.dec\.sched\.tx_counter\[3\]
*937 cpu\.dec\.z
*938 cpu\.fifo\.entries\[1\]\[0\]
*939 cpu\.fifo\.entries\[2\]\[0\]
*940 cpu\.fifo\.entries\[3\]\[0\]
*941 cpu\.fifo\.entries\[4\]\[0\]
*942 cpu\.fifo\.entries\[5\]\[0\]
*943 cpu\.fifo\.entries\[6\]\[0\]
*944 cpu\.fifo\.entries\[7\]\[0\]
*945 cpu\.fifo\.num_entries\[0\]
*946 cpu\.fifo\.num_entries\[1\]
*947 cpu\.fifo\.num_entries\[2\]
*948 cpu\.pref\.carry
*949 cpu\.pref\.fifo\.last_entry\[0\]
*950 cpu\.pref\.fifo\.last_entry\[10\]
*951 cpu\.pref\.fifo\.last_entry\[11\]
*952 cpu\.pref\.fifo\.last_entry\[12\]
*953 cpu\.pref\.fifo\.last_entry\[13\]
*954 cpu\.pref\.fifo\.last_entry\[14\]
*955 cpu\.pref\.fifo\.last_entry\[15\]
*956 cpu\.pref\.fifo\.last_entry\[1\]
*957 cpu\.pref\.fifo\.last_entry\[2\]
*958 cpu\.pref\.fifo\.last_entry\[3\]
*959 cpu\.pref\.fifo\.last_entry\[4\]
*960 cpu\.pref\.fifo\.last_entry\[5\]
*961 cpu\.pref\.fifo\.last_entry\[6\]
*962 cpu\.pref\.fifo\.last_entry\[7\]
*963 cpu\.pref\.fifo\.last_entry\[8\]
*964 cpu\.pref\.fifo\.last_entry\[9\]
*965 cpu\.pref\.fifo\.last_valid
*966 cpu\.pref\.fifo\.new_entry\[0\]
*967 cpu\.pref\.fifo\.new_entry\[10\]
*968 cpu\.pref\.fifo\.new_entry\[11\]
*969 cpu\.pref\.fifo\.new_entry\[12\]
*970 cpu\.pref\.fifo\.new_entry\[13\]
*971 cpu\.pref\.fifo\.new_entry\[14\]
*972 cpu\.pref\.fifo\.new_entry\[15\]
*973 cpu\.pref\.fifo\.new_entry\[1\]
*974 cpu\.pref\.fifo\.new_entry\[2\]
*975 cpu\.pref\.fifo\.new_entry\[3\]
*976 cpu\.pref\.fifo\.new_entry\[4\]
*977 cpu\.pref\.fifo\.new_entry\[5\]
*978 cpu\.pref\.fifo\.new_entry\[6\]
*979 cpu\.pref\.fifo\.new_entry\[7\]
*980 cpu\.pref\.fifo\.new_entry\[8\]
*981 cpu\.pref\.fifo\.new_entry\[9\]
*982 cpu\.pref\.fifo\.sr_entries\[0\]\[0\]
*983 cpu\.pref\.fifo\.sr_entries\[0\]\[10\]
*984 cpu\.pref\.fifo\.sr_entries\[0\]\[11\]
*985 cpu\.pref\.fifo\.sr_entries\[0\]\[12\]
*986 cpu\.pref\.fifo\.sr_entries\[0\]\[13\]
*987 cpu\.pref\.fifo\.sr_entries\[0\]\[14\]
*988 cpu\.pref\.fifo\.sr_entries\[0\]\[15\]
*989 cpu\.pref\.fifo\.sr_entries\[0\]\[1\]
*990 cpu\.pref\.fifo\.sr_entries\[0\]\[2\]
*991 cpu\.pref\.fifo\.sr_entries\[0\]\[3\]
*992 cpu\.pref\.fifo\.sr_entries\[0\]\[4\]
*993 cpu\.pref\.fifo\.sr_entries\[0\]\[5\]
*994 cpu\.pref\.fifo\.sr_entries\[0\]\[6\]
*995 cpu\.pref\.fifo\.sr_entries\[0\]\[7\]
*996 cpu\.pref\.fifo\.sr_entries\[0\]\[8\]
*997 cpu\.pref\.fifo\.sr_entries\[0\]\[9\]
*998 cpu\.pref\.fifo\.valid\[0\]
*999 cpu\.pref\.imm_reg\[2\]
*1000 cpu\.pref\.imm_reg\[3\]
*1001 cpu\.pref\.imm_reg\[4\]
*1002 cpu\.pref\.imm_reg\[5\]
*1003 cpu\.pref\.imm_reg\[6\]
*1004 cpu\.pref\.imm_reg\[7\]
*1005 cpu\.pref\.num_flushed\[0\]
*1006 cpu\.pref\.num_flushed\[1\]
*1007 cpu\.pref\.num_prefetched\[0\]
*1008 cpu\.pref\.num_prefetched\[1\]
*1009 cpu\.pref\.pc\[0\]
*1010 cpu\.pref\.pc\[10\]
*1011 cpu\.pref\.pc\[11\]
*1012 cpu\.pref\.pc\[12\]
*1013 cpu\.pref\.pc\[13\]
*1014 cpu\.pref\.pc\[14\]
*1015 cpu\.pref\.pc\[15\]
*1016 cpu\.pref\.pc\[1\]
*1017 cpu\.pref\.pc\[2\]
*1018 cpu\.pref\.pc\[3\]
*1019 cpu\.pref\.pc\[4\]
*1020 cpu\.pref\.pc\[5\]
*1021 cpu\.pref\.pc\[6\]
*1022 cpu\.pref\.pc\[7\]
*1023 cpu\.pref\.pc\[8\]
*1024 cpu\.pref\.pc\[9\]
*1025 cpu\.pref\.sreg_full
*1026 cpu\.pref\.sum\[2\]
*1027 net1
*1028 net100
*1029 net101
*1030 net102
*1031 net103
*1032 net104
*1033 net105
*1034 net106
*1035 net107
*1036 net108
*1037 net109
*1038 net110
*1039 net111
*1040 net112
*1041 net113
*1042 net114
*1043 net115
*1044 net116
*1045 net117
*1046 net118
*1047 net119
*1048 net120
*1049 net121
*1050 net122
*1051 net123
*1052 net124
*1053 net125
*1054 net126
*1055 net127
*1056 net128
*1057 net129
*1058 net130
*1059 net131
*1060 net132
*1061 net133
*1062 net134
*1063 net135
*1064 net136
*1065 net137
*1066 net138
*1067 net139
*1068 net140
*1069 net141
*1070 net142
*1071 net143
*1072 net144
*1073 net145
*1074 net146
*1075 net147
*1076 net148
*1077 net149
*1078 net150
*1079 net151
*1080 net152
*1081 net153
*1082 net154
*1083 net155
*1084 net156
*1085 net157
*1086 net158
*1087 net159
*1088 net160
*1089 net161
*1090 net162
*1091 net163
*1092 net164
*1093 net165
*1094 net166
*1095 net167
*1096 net168
*1097 net169
*1098 net170
*1099 net171
*1100 net172
*1101 net173
*1102 net174
*1103 net175
*1104 net176
*1105 net177
*1106 net178
*1107 net179
*1108 net180
*1109 net181
*1110 net182
*1111 net183
*1112 net184
*1113 net185
*1114 net186
*1115 net187
*1116 net188
*1117 net189
*1118 net190
*1119 net191
*1120 net192
*1121 net193
*1122 net194
*1123 net195
*1124 net196
*1125 net197
*1126 net198
*1127 net199
*1128 net2
*1129 net200
*1130 net201
*1131 net202
*1132 net203
*1133 net204
*1134 net205
*1135 net206
*1136 net207
*1137 net208
*1138 net209
*1139 net210
*1140 net211
*1141 net212
*1142 net213
*1143 net214
*1144 net215
*1145 net216
*1146 net217
*1147 net218
*1148 net219
*1149 net29
*1150 net3
*1151 net30
*1152 net31
*1153 net32
*1154 net33
*1155 net34
*1156 net35
*1157 net36
*1158 net37
*1159 net38
*1160 net39
*1161 net4
*1162 net40
*1163 net41
*1164 net42
*1165 net43
*1166 net44
*1167 net45
*1168 net46
*1169 net47
*1170 net48
*1171 net49
*1172 net5
*1173 net50
*1174 net51
*1175 net52
*1176 net53
*1177 net54
*1178 net55
*1179 net56
*1180 net57
*1181 net58
*1182 net59
*1183 net6
*1184 net60
*1185 net61
*1186 net62
*1187 net63
*1188 net64
*1189 net65
*1190 net66
*1191 net67
*1192 net68
*1193 net69
*1194 net7
*1195 net70
*1196 net71
*1197 net72
*1198 net73
*1199 net74
*1200 net75
*1201 net76
*1202 net77
*1203 net78
*1204 net79
*1205 net80
*1206 net81
*1207 net82
*1208 net83
*1209 net84
*1210 net85
*1211 net86
*1212 net87
*1213 net88
*1214 net89
*1215 net90
*1216 net91
*1217 net92
*1218 net93
*1219 net94
*1220 net95
*1221 net96
*1222 net97
*1223 net98
*1224 net99
*1225 FILLER_0_0_104
*1226 FILLER_0_0_129
*1227 FILLER_0_0_141
*1228 FILLER_0_0_15
*1229 FILLER_0_0_156
*1230 FILLER_0_0_166
*1231 FILLER_0_0_169
*1232 FILLER_0_0_188
*1233 FILLER_0_0_193
*1234 FILLER_0_0_213
*1235 FILLER_0_0_225
*1236 FILLER_0_0_250
*1237 FILLER_0_0_253
*1238 FILLER_0_0_265
*1239 FILLER_0_0_27
*1240 FILLER_0_0_277
*1241 FILLER_0_0_281
*1242 FILLER_0_0_29
*1243 FILLER_0_0_293
*1244 FILLER_0_0_3
*1245 FILLER_0_0_305
*1246 FILLER_0_0_309
*1247 FILLER_0_0_321
*1248 FILLER_0_0_333
*1249 FILLER_0_0_41
*1250 FILLER_0_0_53
*1251 FILLER_0_0_57
*1252 FILLER_0_0_69
*1253 FILLER_0_0_81
*1254 FILLER_0_0_85
*1255 FILLER_0_0_90
*1256 FILLER_0_0_94
*1257 FILLER_0_10_103
*1258 FILLER_0_10_107
*1259 FILLER_0_10_117
*1260 FILLER_0_10_138
*1261 FILLER_0_10_148
*1262 FILLER_0_10_157
*1263 FILLER_0_10_182
*1264 FILLER_0_10_194
*1265 FILLER_0_10_197
*1266 FILLER_0_10_217
*1267 FILLER_0_10_221
*1268 FILLER_0_10_233
*1269 FILLER_0_10_251
*1270 FILLER_0_10_253
*1271 FILLER_0_10_257
*1272 FILLER_0_10_267
*1273 FILLER_0_10_29
*1274 FILLER_0_10_295
*1275 FILLER_0_10_3
*1276 FILLER_0_10_309
*1277 FILLER_0_10_332
*1278 FILLER_0_10_40
*1279 FILLER_0_10_48
*1280 FILLER_0_10_65
*1281 FILLER_0_10_78
*1282 FILLER_0_10_85
*1283 FILLER_0_11_107
*1284 FILLER_0_11_124
*1285 FILLER_0_11_146
*1286 FILLER_0_11_160
*1287 FILLER_0_11_174
*1288 FILLER_0_11_180
*1289 FILLER_0_11_201
*1290 FILLER_0_11_220
*1291 FILLER_0_11_250
*1292 FILLER_0_11_269
*1293 FILLER_0_11_290
*1294 FILLER_0_11_3
*1295 FILLER_0_11_311
*1296 FILLER_0_11_331
*1297 FILLER_0_11_87
*1298 FILLER_0_12_141
*1299 FILLER_0_12_151
*1300 FILLER_0_12_157
*1301 FILLER_0_12_186
*1302 FILLER_0_12_194
*1303 FILLER_0_12_206
*1304 FILLER_0_12_230
*1305 FILLER_0_12_273
*1306 FILLER_0_12_29
*1307 FILLER_0_12_306
*1308 FILLER_0_12_318
*1309 FILLER_0_12_329
*1310 FILLER_0_12_77
*1311 FILLER_0_12_83
*1312 FILLER_0_12_85
*1313 FILLER_0_12_99
*1314 FILLER_0_13_108
*1315 FILLER_0_13_128
*1316 FILLER_0_13_136
*1317 FILLER_0_13_147
*1318 FILLER_0_13_160
*1319 FILLER_0_13_167
*1320 FILLER_0_13_169
*1321 FILLER_0_13_177
*1322 FILLER_0_13_185
*1323 FILLER_0_13_207
*1324 FILLER_0_13_217
*1325 FILLER_0_13_223
*1326 FILLER_0_13_252
*1327 FILLER_0_13_273
*1328 FILLER_0_13_297
*1329 FILLER_0_13_315
*1330 FILLER_0_13_32
*1331 FILLER_0_13_60
*1332 FILLER_0_13_73
*1333 FILLER_0_14_101
*1334 FILLER_0_14_141
*1335 FILLER_0_14_153
*1336 FILLER_0_14_163
*1337 FILLER_0_14_179
*1338 FILLER_0_14_187
*1339 FILLER_0_14_195
*1340 FILLER_0_14_21
*1341 FILLER_0_14_223
*1342 FILLER_0_14_228
*1343 FILLER_0_14_251
*1344 FILLER_0_14_253
*1345 FILLER_0_14_271
*1346 FILLER_0_14_287
*1347 FILLER_0_14_29
*1348 FILLER_0_14_291
*1349 FILLER_0_14_3
*1350 FILLER_0_14_318
*1351 FILLER_0_14_331
*1352 FILLER_0_14_46
*1353 FILLER_0_14_50
*1354 FILLER_0_14_67
*1355 FILLER_0_14_71
*1356 FILLER_0_14_81
*1357 FILLER_0_14_85
*1358 FILLER_0_14_91
*1359 FILLER_0_15_103
*1360 FILLER_0_15_129
*1361 FILLER_0_15_163
*1362 FILLER_0_15_167
*1363 FILLER_0_15_169
*1364 FILLER_0_15_206
*1365 FILLER_0_15_242
*1366 FILLER_0_15_278
*1367 FILLER_0_15_3
*1368 FILLER_0_15_55
*1369 FILLER_0_15_57
*1370 FILLER_0_15_80
*1371 FILLER_0_15_86
*1372 FILLER_0_16_137
*1373 FILLER_0_16_14
*1374 FILLER_0_16_145
*1375 FILLER_0_16_153
*1376 FILLER_0_16_157
*1377 FILLER_0_16_169
*1378 FILLER_0_16_177
*1379 FILLER_0_16_193
*1380 FILLER_0_16_197
*1381 FILLER_0_16_209
*1382 FILLER_0_16_220
*1383 FILLER_0_16_228
*1384 FILLER_0_16_240
*1385 FILLER_0_16_249
*1386 FILLER_0_16_253
*1387 FILLER_0_16_267
*1388 FILLER_0_16_3
*1389 FILLER_0_16_306
*1390 FILLER_0_16_309
*1391 FILLER_0_16_331
*1392 FILLER_0_16_45
*1393 FILLER_0_16_72
*1394 FILLER_0_16_83
*1395 FILLER_0_16_85
*1396 FILLER_0_16_89
*1397 FILLER_0_16_93
*1398 FILLER_0_17_109
*1399 FILLER_0_17_138
*1400 FILLER_0_17_15
*1401 FILLER_0_17_156
*1402 FILLER_0_17_164
*1403 FILLER_0_17_182
*1404 FILLER_0_17_202
*1405 FILLER_0_17_222
*1406 FILLER_0_17_225
*1407 FILLER_0_17_266
*1408 FILLER_0_17_3
*1409 FILLER_0_17_309
*1410 FILLER_0_17_36
*1411 FILLER_0_17_50
*1412 FILLER_0_17_57
*1413 FILLER_0_17_73
*1414 FILLER_0_17_87
*1415 FILLER_0_18_115
*1416 FILLER_0_18_124
*1417 FILLER_0_18_128
*1418 FILLER_0_18_136
*1419 FILLER_0_18_141
*1420 FILLER_0_18_15
*1421 FILLER_0_18_153
*1422 FILLER_0_18_162
*1423 FILLER_0_18_168
*1424 FILLER_0_18_172
*1425 FILLER_0_18_19
*1426 FILLER_0_18_192
*1427 FILLER_0_18_197
*1428 FILLER_0_18_201
*1429 FILLER_0_18_210
*1430 FILLER_0_18_214
*1431 FILLER_0_18_248
*1432 FILLER_0_18_253
*1433 FILLER_0_18_266
*1434 FILLER_0_18_285
*1435 FILLER_0_18_3
*1436 FILLER_0_18_306
*1437 FILLER_0_18_318
*1438 FILLER_0_18_39
*1439 FILLER_0_18_56
*1440 FILLER_0_18_70
*1441 FILLER_0_18_81
*1442 FILLER_0_18_90
*1443 FILLER_0_19_102
*1444 FILLER_0_19_110
*1445 FILLER_0_19_113
*1446 FILLER_0_19_121
*1447 FILLER_0_19_125
*1448 FILLER_0_19_141
*1449 FILLER_0_19_15
*1450 FILLER_0_19_161
*1451 FILLER_0_19_195
*1452 FILLER_0_19_213
*1453 FILLER_0_19_225
*1454 FILLER_0_19_250
*1455 FILLER_0_19_27
*1456 FILLER_0_19_284
*1457 FILLER_0_19_3
*1458 FILLER_0_19_317
*1459 FILLER_0_19_329
*1460 FILLER_0_19_38
*1461 FILLER_0_19_42
*1462 FILLER_0_19_52
*1463 FILLER_0_19_65
*1464 FILLER_0_19_73
*1465 FILLER_0_19_84
*1466 FILLER_0_19_90
*1467 FILLER_0_1_106
*1468 FILLER_0_1_122
*1469 FILLER_0_1_15
*1470 FILLER_0_1_162
*1471 FILLER_0_1_185
*1472 FILLER_0_1_225
*1473 FILLER_0_1_229
*1474 FILLER_0_1_255
*1475 FILLER_0_1_267
*1476 FILLER_0_1_27
*1477 FILLER_0_1_279
*1478 FILLER_0_1_281
*1479 FILLER_0_1_293
*1480 FILLER_0_1_3
*1481 FILLER_0_1_305
*1482 FILLER_0_1_317
*1483 FILLER_0_1_329
*1484 FILLER_0_1_39
*1485 FILLER_0_1_51
*1486 FILLER_0_1_55
*1487 FILLER_0_1_57
*1488 FILLER_0_1_74
*1489 FILLER_0_1_88
*1490 FILLER_0_20_101
*1491 FILLER_0_20_114
*1492 FILLER_0_20_121
*1493 FILLER_0_20_125
*1494 FILLER_0_20_130
*1495 FILLER_0_20_138
*1496 FILLER_0_20_141
*1497 FILLER_0_20_145
*1498 FILLER_0_20_160
*1499 FILLER_0_20_167
*1500 FILLER_0_20_173
*1501 FILLER_0_20_19
*1502 FILLER_0_20_192
*1503 FILLER_0_20_197
*1504 FILLER_0_20_204
*1505 FILLER_0_20_216
*1506 FILLER_0_20_224
*1507 FILLER_0_20_234
*1508 FILLER_0_20_253
*1509 FILLER_0_20_27
*1510 FILLER_0_20_279
*1511 FILLER_0_20_288
*1512 FILLER_0_20_29
*1513 FILLER_0_20_306
*1514 FILLER_0_20_309
*1515 FILLER_0_20_33
*1516 FILLER_0_20_334
*1517 FILLER_0_20_52
*1518 FILLER_0_20_83
*1519 FILLER_0_20_85
*1520 FILLER_0_20_91
*1521 FILLER_0_21_102
*1522 FILLER_0_21_113
*1523 FILLER_0_21_123
*1524 FILLER_0_21_140
*1525 FILLER_0_21_146
*1526 FILLER_0_21_190
*1527 FILLER_0_21_198
*1528 FILLER_0_21_215
*1529 FILLER_0_21_223
*1530 FILLER_0_21_225
*1531 FILLER_0_21_247
*1532 FILLER_0_21_268
*1533 FILLER_0_21_3
*1534 FILLER_0_21_316
*1535 FILLER_0_21_36
*1536 FILLER_0_21_46
*1537 FILLER_0_21_53
*1538 FILLER_0_21_57
*1539 FILLER_0_21_73
*1540 FILLER_0_21_85
*1541 FILLER_0_21_90
*1542 FILLER_0_22_106
*1543 FILLER_0_22_113
*1544 FILLER_0_22_136
*1545 FILLER_0_22_141
*1546 FILLER_0_22_151
*1547 FILLER_0_22_163
*1548 FILLER_0_22_187
*1549 FILLER_0_22_195
*1550 FILLER_0_22_20
*1551 FILLER_0_22_202
*1552 FILLER_0_22_210
*1553 FILLER_0_22_249
*1554 FILLER_0_22_253
*1555 FILLER_0_22_262
*1556 FILLER_0_22_281
*1557 FILLER_0_22_287
*1558 FILLER_0_22_291
*1559 FILLER_0_22_3
*1560 FILLER_0_22_315
*1561 FILLER_0_22_38
*1562 FILLER_0_22_59
*1563 FILLER_0_22_69
*1564 FILLER_0_22_7
*1565 FILLER_0_22_83
*1566 FILLER_0_22_91
*1567 FILLER_0_23_110
*1568 FILLER_0_23_119
*1569 FILLER_0_23_123
*1570 FILLER_0_23_127
*1571 FILLER_0_23_131
*1572 FILLER_0_23_164
*1573 FILLER_0_23_185
*1574 FILLER_0_23_191
*1575 FILLER_0_23_21
*1576 FILLER_0_23_216
*1577 FILLER_0_23_221
*1578 FILLER_0_23_225
*1579 FILLER_0_23_248
*1580 FILLER_0_23_270
*1581 FILLER_0_23_3
*1582 FILLER_0_23_313
*1583 FILLER_0_23_334
*1584 FILLER_0_23_52
*1585 FILLER_0_23_57
*1586 FILLER_0_23_65
*1587 FILLER_0_23_83
*1588 FILLER_0_23_97
*1589 FILLER_0_24_13
*1590 FILLER_0_24_134
*1591 FILLER_0_24_139
*1592 FILLER_0_24_172
*1593 FILLER_0_24_176
*1594 FILLER_0_24_192
*1595 FILLER_0_24_249
*1596 FILLER_0_24_25
*1597 FILLER_0_24_261
*1598 FILLER_0_24_271
*1599 FILLER_0_24_29
*1600 FILLER_0_24_3
*1601 FILLER_0_24_318
*1602 FILLER_0_24_35
*1603 FILLER_0_24_41
*1604 FILLER_0_24_49
*1605 FILLER_0_24_65
*1606 FILLER_0_24_7
*1607 FILLER_0_24_76
*1608 FILLER_0_24_85
*1609 FILLER_0_25_110
*1610 FILLER_0_25_113
*1611 FILLER_0_25_117
*1612 FILLER_0_25_129
*1613 FILLER_0_25_143
*1614 FILLER_0_25_15
*1615 FILLER_0_25_164
*1616 FILLER_0_25_172
*1617 FILLER_0_25_190
*1618 FILLER_0_25_196
*1619 FILLER_0_25_200
*1620 FILLER_0_25_206
*1621 FILLER_0_25_234
*1622 FILLER_0_25_270
*1623 FILLER_0_25_3
*1624 FILLER_0_25_33
*1625 FILLER_0_25_334
*1626 FILLER_0_25_53
*1627 FILLER_0_25_60
*1628 FILLER_0_25_87
*1629 FILLER_0_25_99
*1630 FILLER_0_26_101
*1631 FILLER_0_26_116
*1632 FILLER_0_26_124
*1633 FILLER_0_26_139
*1634 FILLER_0_26_141
*1635 FILLER_0_26_149
*1636 FILLER_0_26_15
*1637 FILLER_0_26_170
*1638 FILLER_0_26_174
*1639 FILLER_0_26_180
*1640 FILLER_0_26_19
*1641 FILLER_0_26_213
*1642 FILLER_0_26_237
*1643 FILLER_0_26_241
*1644 FILLER_0_26_296
*1645 FILLER_0_26_3
*1646 FILLER_0_26_315
*1647 FILLER_0_26_333
*1648 FILLER_0_26_42
*1649 FILLER_0_26_46
*1650 FILLER_0_26_72
*1651 FILLER_0_26_81
*1652 FILLER_0_27_101
*1653 FILLER_0_27_123