*SPEF "ieee 1481-1999"
*DESIGN "tt_um_toivoh_basilisc_2816"
*DATE "06:19:27 Sunday May 19, 2024"
*VENDOR "The OpenROAD Project"
*PROGRAM "OpenROAD"
*VERSION "da0053d7b0014ab9c87ea148875ff6c2a0f9b658"
*DESIGN_FLOW "NAME_SCOPE LOCAL" "PIN_CAP NONE"
*DIVIDER /
*DELIMITER :
*BUS_DELIMITER []
*T_UNIT 1 NS
*C_UNIT 1 PF
*R_UNIT 1 OHM
*L_UNIT 1 HENRY

*NAME_MAP
*3 clk
*4 ena
*5 rst_n
*6 ui_in[0]
*7 ui_in[1]
*8 ui_in[2]
*9 ui_in[3]
*10 ui_in[4]
*11 ui_in[5]
*12 ui_in[6]
*13 ui_in[7]
*14 uio_in[0]
*15 uio_in[1]
*16 uio_in[2]
*17 uio_in[3]
*18 uio_in[4]
*19 uio_in[5]
*20 uio_in[6]
*21 uio_in[7]
*22 net7
*23 net8
*24 net9
*25 net10
*26 net11
*27 net12
*28 net13
*29 net14
*30 net15
*31 net16
*32 net17
*33 net18
*34 net19
*35 net20
*36 net21
*37 net22
*38 uo_out[0]
*39 uo_out[1]
*40 uo_out[2]
*41 uo_out[3]
*42 net23
*43 net24
*44 net25
*45 net26
*46 _0000_
*47 _0001_
*48 _0002_
*49 _0003_
*50 _0004_
*51 _0005_
*52 _0006_
*53 _0007_
*54 _0008_
*55 _0009_
*56 _0010_
*57 _0011_
*58 _0012_
*59 _0013_
*60 _0014_
*61 _0015_
*62 _0016_
*63 _0017_
*64 _0018_
*65 _0019_
*66 _0020_
*67 _0021_
*68 _0022_
*69 _0023_
*70 _0024_
*71 _0025_
*72 _0026_
*73 _0027_
*74 _0028_
*75 _0029_
*76 _0030_
*77 _0031_
*78 _0032_
*79 _0033_
*80 _0034_
*81 _0035_
*82 _0036_
*83 _0037_
*84 _0038_
*85 _0039_
*86 _0040_
*87 _0041_
*88 _0042_
*89 _0043_
*90 _0044_
*91 _0045_
*92 _0046_
*93 _0047_
*94 _0048_
*95 _0049_
*96 _0050_
*97 _0051_
*98 _0052_
*99 _0053_
*100 _0054_
*101 _0055_
*102 _0056_
*103 _0057_
*104 _0058_
*105 _0059_
*106 _0060_
*107 _0061_
*108 _0062_
*109 _0063_
*110 _0064_
*111 _0065_
*112 _0066_
*113 _0067_
*114 _0068_
*115 _0069_
*116 _0070_
*117 _0071_
*118 _0072_
*119 _0073_
*120 _0074_
*121 _0075_
*122 _0076_
*123 _0077_
*124 _0078_
*125 _0079_
*126 _0080_
*127 _0081_
*128 _0082_
*129 _0083_
*130 _0084_
*131 _0085_
*132 _0086_
*133 _0087_
*134 _0088_
*135 _0089_
*136 _0090_
*137 _0091_
*138 _0092_
*139 _0093_
*140 _0094_
*141 _0095_
*142 _0096_
*143 _0097_
*144 _0098_
*145 _0099_
*146 _0100_
*147 _0101_
*148 _0102_
*149 _0103_
*150 _0104_
*151 _0105_
*152 _0106_
*153 _0107_
*154 _0108_
*155 _0109_
*156 _0110_
*157 _0111_
*158 _0112_
*159 _0113_
*160 _0114_
*161 _0115_
*162 _0116_
*163 _0117_
*164 _0118_
*165 _0119_
*166 _0120_
*167 _0121_
*168 _0122_
*169 _0123_
*170 _0124_
*171 _0125_
*172 _0126_
*173 _0127_
*174 _0128_
*175 _0129_
*176 _0130_
*177 _0131_
*178 _0132_
*179 _0133_
*180 _0134_
*181 _0135_
*182 _0136_
*183 _0137_
*184 _0138_
*185 _0139_
*186 _0140_
*187 _0141_
*188 _0142_
*189 _0143_
*190 _0144_
*191 _0145_
*192 _0146_
*193 _0147_
*194 _0148_
*195 _0149_
*196 _0150_
*197 _0151_
*198 _0152_
*199 _0153_
*200 _0154_
*201 _0155_
*202 _0156_
*203 _0157_
*204 _0158_
*205 _0159_
*206 _0160_
*207 _0161_
*208 _0162_
*209 _0163_
*210 _0164_
*211 _0165_
*212 _0166_
*213 _0167_
*214 _0168_
*215 _0169_
*216 _0170_
*217 _0171_
*218 _0172_
*219 _0173_
*220 _0174_
*221 _0175_
*222 _0176_
*223 _0177_
*224 _0178_
*225 _0179_
*226 _0180_
*227 _0181_
*228 _0182_
*229 _0183_
*230 _0184_
*231 _0185_
*232 _0186_
*233 _0187_
*234 _0188_
*235 _0189_
*236 _0190_
*237 _0191_
*238 _0192_
*239 _0193_
*240 _0194_
*241 _0195_
*242 _0196_
*243 _0197_
*244 _0198_
*245 _0199_
*246 _0200_
*247 _0201_
*248 _0202_
*249 _0203_
*250 _0204_
*251 _0205_
*252 _0206_
*253 _0207_
*254 _0208_
*255 _0209_
*256 _0210_
*257 _0211_
*258 _0212_
*259 _0213_
*260 _0214_
*261 _0215_
*262 _0216_
*263 _0217_
*264 _0218_
*265 _0219_
*266 _0220_
*267 _0221_
*268 _0222_
*269 _0223_
*270 _0224_
*271 _0225_
*272 _0226_
*273 _0227_
*274 _0228_
*275 _0229_
*276 _0230_
*277 _0231_
*278 _0232_
*279 _0233_
*280 _0234_
*281 _0235_
*282 _0236_
*283 _0237_
*284 _0238_
*285 _0239_
*286 _0240_
*287 _0241_
*288 _0242_
*289 _0243_
*290 _0244_
*291 _0245_
*292 _0246_
*293 _0247_
*294 _0248_
*295 _0249_
*296 _0250_
*297 _0251_
*298 _0252_
*299 _0253_
*300 _0254_
*301 _0255_
*302 _0256_
*303 _0257_
*304 _0258_
*305 _0259_
*306 _0260_
*307 _0261_
*308 _0262_
*309 _0263_
*310 _0264_
*311 _0265_
*312 _0266_
*313 _0267_
*314 _0268_
*315 _0269_
*316 _0270_
*317 _0271_
*318 _0272_
*319 _0273_
*320 _0274_
*321 _0275_
*322 _0276_
*323 _0277_
*324 _0278_
*325 _0279_
*326 _0280_
*327 _0281_
*328 _0282_
*329 _0283_
*330 _0284_
*331 _0285_
*332 _0286_
*333 _0287_
*334 _0288_
*335 _0289_
*336 _0290_
*337 _0291_
*338 _0292_
*339 _0293_
*340 _0294_
*341 _0295_
*342 _0296_
*343 _0297_
*344 _0298_
*345 _0299_
*346 _0300_
*347 _0301_
*348 _0302_
*349 _0303_
*350 _0304_
*351 _0305_
*352 _0306_
*353 _0307_
*354 _0308_
*355 _0309_
*356 _0310_
*357 _0311_
*358 _0312_
*359 _0313_
*360 _0314_
*361 _0315_
*362 _0316_
*363 _0317_
*364 _0318_
*365 _0319_
*366 _0320_
*367 _0321_
*368 _0322_
*369 _0323_
*370 _0324_
*371 _0325_
*372 _0326_
*373 _0327_
*374 _0328_
*375 _0329_
*376 _0330_
*377 _0331_
*378 _0332_
*379 _0333_
*380 _0334_
*381 _0335_
*382 _0336_
*383 _0337_
*384 _0338_
*385 _0339_
*386 _0340_
*387 _0341_
*388 _0342_
*389 _0343_
*390 _0344_
*391 _0345_
*392 _0346_
*393 _0347_
*394 _0348_
*395 _0349_
*396 _0350_
*397 _0351_
*398 _0352_
*399 _0353_
*400 _0354_
*401 _0355_
*402 _0356_
*403 _0357_
*404 _0358_
*405 _0359_
*406 _0360_
*407 _0361_
*408 _0362_
*409 _0363_
*410 _0364_
*411 _0365_
*412 _0366_
*413 _0367_
*414 _0368_
*415 _0369_
*416 _0370_
*417 _0371_
*418 _0372_
*419 _0373_
*420 _0374_
*421 _0375_
*422 _0376_
*423 _0377_
*424 _0378_
*425 _0379_
*426 _0380_
*427 _0381_
*428 _0382_
*429 _0383_
*430 _0384_
*431 _0385_
*432 _0386_
*433 _0387_
*434 _0388_
*435 _0389_
*436 _0390_
*437 _0391_
*438 _0392_
*439 _0393_
*440 _0394_
*441 _0395_
*442 _0396_
*443 _0397_
*444 _0398_
*445 _0399_
*446 _0400_
*447 _0401_
*448 _0402_
*449 _0403_
*450 _0404_
*451 _0405_
*452 _0406_
*453 _0407_
*454 _0408_
*455 _0409_
*456 _0410_
*457 _0411_
*458 _0412_
*459 _0413_
*460 _0414_
*461 _0415_
*462 _0416_
*463 _0417_
*464 _0418_
*465 _0419_
*466 _0420_
*467 _0421_
*468 _0422_
*469 _0423_
*470 _0424_
*471 _0425_
*472 _0426_
*473 _0427_
*474 _0428_
*475 _0429_
*476 _0430_
*477 _0431_
*478 _0432_
*479 _0433_
*480 _0434_
*481 _0435_
*482 _0436_
*483 _0437_
*484 _0438_
*485 _0439_
*486 _0440_
*487 _0441_
*488 _0442_
*489 _0443_
*490 _0444_
*491 _0445_
*492 _0446_
*493 _0447_
*494 _0448_
*495 _0449_
*496 _0450_
*497 _0451_
*498 _0452_
*499 _0453_
*500 _0454_
*501 _0455_
*502 _0456_
*503 _0457_
*504 _0458_
*505 _0459_
*506 _0460_
*507 _0461_
*508 _0462_
*509 _0463_
*510 _0464_
*511 _0465_
*512 _0466_
*513 _0467_
*514 _0468_
*515 _0469_
*516 _0470_
*517 _0471_
*518 _0472_
*519 _0473_
*520 _0474_
*521 _0475_
*522 _0476_
*523 _0477_
*524 _0478_
*525 _0479_
*526 _0480_
*527 _0481_
*528 _0482_
*529 _0483_
*530 _0484_
*531 _0485_
*532 _0486_
*533 _0487_
*534 _0488_
*535 _0489_
*536 _0490_
*537 _0491_
*538 _0492_
*539 _0493_
*540 _0494_
*541 _0495_
*542 _0496_
*543 _0497_
*544 _0498_
*545 _0499_
*546 _0500_
*547 _0501_
*548 _0502_
*549 _0503_
*550 _0504_
*551 _0505_
*552 _0506_
*553 _0507_
*554 _0508_
*555 _0509_
*556 _0510_
*557 _0511_
*558 _0512_
*559 _0513_
*560 _0514_
*561 _0515_
*562 _0516_
*563 _0517_
*564 _0518_
*565 _0519_
*566 _0520_
*567 _0521_
*568 _0522_
*569 _0523_
*570 _0524_
*571 _0525_
*572 _0526_
*573 _0527_
*574 _0528_
*575 _0529_
*576 _0530_
*577 _0531_
*578 _0532_
*579 _0533_
*580 _0534_
*581 _0535_
*582 _0536_
*583 _0537_
*584 _0538_
*585 _0539_
*586 _0540_
*587 _0541_
*588 _0542_
*589 _0543_
*590 _0544_
*591 _0545_
*592 _0546_
*593 _0547_
*594 _0548_
*595 _0549_
*596 _0550_
*597 _0551_
*598 _0552_
*599 _0553_
*600 _0554_
*601 _0555_
*602 _0556_
*603 _0557_
*604 _0558_
*605 _0559_
*606 _0560_
*607 _0561_
*608 _0562_
*609 _0563_
*610 _0564_
*611 _0565_
*612 _0566_
*613 _0567_
*614 _0568_
*615 _0569_
*616 _0570_
*617 _0571_
*618 _0572_
*619 _0573_
*620 _0574_
*621 _0575_
*622 _0576_
*623 _0577_
*624 _0578_
*625 _0579_
*626 _0580_
*627 _0581_
*628 _0582_
*629 _0583_
*630 _0584_
*631 _0585_
*632 _0586_
*633 _0587_
*634 _0588_
*635 _0589_
*636 _0590_
*637 _0591_
*638 _0592_
*639 _0593_
*640 _0594_
*641 _0595_
*642 _0596_
*643 _0597_
*644 _0598_
*645 _0599_
*646 _0600_
*647 _0601_
*648 _0602_
*649 _0603_
*650 _0604_
*651 _0605_
*652 _0606_
*653 _0607_
*654 _0608_
*655 _0609_
*656 _0610_
*657 _0611_
*658 _0612_
*659 _0613_
*660 _0614_
*661 _0615_
*662 _0616_
*663 _0617_
*664 _0618_
*665 _0619_
*666 _0620_
*667 _0621_
*668 _0622_
*669 _0623_
*670 _0624_
*671 _0625_
*672 _0626_
*673 _0627_
*674 _0628_
*675 _0629_
*676 _0630_
*677 _0631_
*678 _0632_
*679 _0633_
*680 _0634_
*681 _0635_
*682 _0636_
*683 _0637_
*684 _0638_
*685 _0639_
*686 _0640_
*687 _0641_
*688 _0642_
*689 _0643_
*690 _0644_
*691 _0645_
*692 _0646_
*693 _0647_
*694 _0648_
*695 _0649_
*696 _0650_
*697 _0651_
*698 _0652_
*699 _0653_
*700 _0654_
*701 _0655_
*702 _0656_
*703 _0657_
*704 _0658_
*705 _0659_
*706 _0660_
*707 _0661_
*708 _0662_
*709 _0663_
*710 _0664_
*711 _0665_
*712 _0666_
*713 _0667_
*714 _0668_
*715 _0669_
*716 _0670_
*717 _0671_
*718 _0672_
*719 _0673_
*720 _0674_
*721 _0675_
*722 _0676_
*723 _0677_
*724 _0678_
*725 _0679_
*726 _0680_
*727 _0681_
*728 _0682_
*729 _0683_
*730 _0684_
*731 _0685_
*732 _0686_
*733 _0687_
*734 _0688_
*735 _0689_
*736 _0690_
*737 _0691_
*738 _0692_
*739 _0693_
*740 _0694_
*741 _0695_
*742 _0696_
*743 _0697_
*744 _0698_
*745 _0699_
*746 _0700_
*747 _0701_
*748 _0702_
*749 _0703_
*750 _0704_
*751 _0705_
*752 _0706_
*753 _0707_
*754 _0708_
*755 _0709_
*756 _0710_
*757 _0711_
*758 _0712_
*759 _0713_
*760 _0714_
*761 _0715_
*762 _0716_
*763 _0717_
*764 _0718_
*765 _0719_
*766 _0720_
*767 _0721_
*768 _0722_
*769 _0723_
*770 _0724_
*771 _0725_
*772 _0726_
*773 _0727_
*774 _0728_
*775 _0729_
*776 _0730_
*777 _0731_
*778 _0732_
*779 _0733_
*780 _0734_
*781 _0735_
*782 _0736_
*783 _0737_
*784 _0738_
*785 _0739_
*786 _0740_
*787 _0741_
*788 _0742_
*789 _0743_
*790 _0744_
*791 _0745_
*792 _0746_
*793 _0747_
*794 _0748_
*795 _0749_
*796 _0750_
*797 _0751_
*798 _0752_
*799 _0753_
*800 _0754_
*801 _0755_
*802 _0756_
*803 _0757_
*804 _0758_
*805 _0759_
*806 _0760_
*807 _0761_
*808 _0762_
*809 _0763_
*810 _0764_
*811 _0765_
*812 _0766_
*813 _0767_
*814 _0768_
*815 _0769_
*816 _0770_
*817 _0771_
*818 _0772_
*819 _0773_
*820 _0774_
*821 _0775_
*822 _0776_
*823 _0777_
*824 _0778_
*825 _0779_
*826 _0780_
*827 _0781_
*828 _0782_
*829 _0783_
*830 _0784_
*831 _0785_
*832 _0786_
*833 _0787_
*834 _0788_
*835 _0789_
*836 _0790_
*837 _0791_
*838 _0792_
*839 _0793_
*840 _0794_
*841 _0795_
*842 _0796_
*843 _0797_
*844 _0798_
*845 _0799_
*846 _0800_
*847 _0801_
*848 _0802_
*849 _0803_
*850 _0804_
*851 _0805_
*852 _0806_
*853 _0807_
*854 _0808_
*855 _0809_
*856 _0810_
*857 _0811_
*858 _0812_
*859 _0813_
*860 _0814_
*861 _0815_
*862 _0816_
*863 clknet_0_clk
*864 clknet_1_0__leaf_clk
*865 clknet_1_1__leaf_clk
*866 clknet_leaf_0_clk
*867 clknet_leaf_10_clk
*868 clknet_leaf_11_clk
*869 clknet_leaf_1_clk
*870 clknet_leaf_2_clk
*871 clknet_leaf_3_clk
*872 clknet_leaf_4_clk
*873 clknet_leaf_5_clk
*874 clknet_leaf_6_clk
*875 clknet_leaf_7_clk
*876 clknet_leaf_8_clk
*877 clknet_leaf_9_clk
*878 cpu\.comp_counter\[0\]
*879 cpu\.comp_counter\[1\]
*880 cpu\.comp_counter\[2\]
*881 cpu\.curr_sc_tx
*882 cpu\.dec\.aaa\[0\]
*883 cpu\.dec\.aaa\[1\]
*884 cpu\.dec\.aaa\[2\]
*885 cpu\.dec\.addr_reg2\[0\]
*886 cpu\.dec\.addr_reg2\[1\]
*887 cpu\.dec\.addr_reg2\[2\]
*888 cpu\.dec\.arg1_reg\[1\]
*889 cpu\.dec\.arg1_reg\[2\]
*890 cpu\.dec\.arg2_enc\[3\]
*891 cpu\.dec\.arg2_enc\[4\]
*892 cpu\.dec\.arg2_enc\[5\]
*893 cpu\.dec\.b8
*894 cpu\.dec\.d
*895 cpu\.dec\.e
*896 cpu\.dec\.imm_data_in\[0\]
*897 cpu\.dec\.imm_data_in\[1\]
*898 cpu\.dec\.inst_valid
*899 cpu\.dec\.m
*900 cpu\.dec\.rx_counter\[0\]
*901 cpu\.dec\.rx_counter\[1\]
*902 cpu\.dec\.rx_counter\[2\]
*903 cpu\.dec\.rx_counter\[3\]
*904 cpu\.dec\.rx_pins\[0\]
*905 cpu\.dec\.rx_pins\[1\]
*906 cpu\.dec\.sched\.alu\.arg2_01\[1\]
*907 cpu\.dec\.sched\.alu\.carry
*908 cpu\.dec\.sched\.alu\.flag_c
*909 cpu\.dec\.sched\.alu\.flag_s
*910 cpu\.dec\.sched\.alu\.flag_v
*911 cpu\.dec\.sched\.alu\.flag_z
*912 cpu\.dec\.sched\.alu\.next_carry
*913 cpu\.dec\.sched\.alu\.old_arg2_bit
*914 cpu\.dec\.sched\.alu\.registers\.regs\[0\]\[0\]
*915 cpu\.dec\.sched\.alu\.registers\.regs\[0\]\[1\]
*916 cpu\.dec\.sched\.alu\.registers\.regs\[0\]\[2\]
*917 cpu\.dec\.sched\.alu\.registers\.regs\[0\]\[3\]
*918 cpu\.dec\.sched\.alu\.registers\.regs\[0\]\[4\]
*919 cpu\.dec\.sched\.alu\.registers\.regs\[0\]\[5\]
*920 cpu\.dec\.sched\.alu\.registers\.regs\[0\]\[6\]
*921 cpu\.dec\.sched\.alu\.registers\.regs\[0\]\[7\]
*922 cpu\.dec\.sched\.alu\.registers\.regs\[1\]\[0\]
*923 cpu\.dec\.sched\.alu\.registers\.regs\[1\]\[1\]
*924 cpu\.dec\.sched\.alu\.registers\.regs\[1\]\[2\]
*925 cpu\.dec\.sched\.alu\.registers\.regs\[1\]\[3\]
*926 cpu\.dec\.sched\.alu\.registers\.regs\[1\]\[4\]
*927 cpu\.dec\.sched\.alu\.registers\.regs\[1\]\[5\]
*928 cpu\.dec\.sched\.alu\.registers\.regs\[1\]\[6\]
*929 cpu\.dec\.sched\.alu\.registers\.regs\[1\]\[7\]
*930 cpu\.dec\.sched\.alu\.registers\.regs\[2\]\[0\]
*931 cpu\.dec\.sched\.alu\.registers\.regs\[2\]\[1\]
*932 cpu\.dec\.sched\.alu\.registers\.regs\[2\]\[2\]
*933 cpu\.dec\.sched\.alu\.registers\.regs\[2\]\[3\]
*934 cpu\.dec\.sched\.alu\.registers\.regs\[2\]\[4\]
*935 cpu\.dec\.sched\.alu\.registers\.regs\[2\]\[5\]
*936 cpu\.dec\.sched\.alu\.registers\.regs\[2\]\[6\]
*937 cpu\.dec\.sched\.alu\.registers\.regs\[2\]\[7\]
*938 cpu\.dec\.sched\.alu\.registers\.regs\[3\]\[0\]
*939 cpu\.dec\.sched\.alu\.registers\.regs\[3\]\[1\]
*940 cpu\.dec\.sched\.alu\.registers\.regs\[3\]\[2\]
*941 cpu\.dec\.sched\.alu\.registers\.regs\[3\]\[3\]
*942 cpu\.dec\.sched\.alu\.registers\.regs\[3\]\[4\]
*943 cpu\.dec\.sched\.alu\.registers\.regs\[3\]\[5\]
*944 cpu\.dec\.sched\.alu\.registers\.regs\[3\]\[6\]
*945 cpu\.dec\.sched\.alu\.registers\.regs\[3\]\[7\]
*946 cpu\.dec\.sched\.alu\.registers\.regs\[4\]\[0\]
*947 cpu\.dec\.sched\.alu\.registers\.regs\[4\]\[1\]
*948 cpu\.dec\.sched\.alu\.registers\.regs\[4\]\[2\]
*949 cpu\.dec\.sched\.alu\.registers\.regs\[4\]\[3\]
*950 cpu\.dec\.sched\.alu\.registers\.regs\[4\]\[4\]
*951 cpu\.dec\.sched\.alu\.registers\.regs\[4\]\[5\]
*952 cpu\.dec\.sched\.alu\.registers\.regs\[4\]\[6\]
*953 cpu\.dec\.sched\.alu\.registers\.regs\[4\]\[7\]
*954 cpu\.dec\.sched\.alu\.registers\.regs\[5\]\[0\]
*955 cpu\.dec\.sched\.alu\.registers\.regs\[5\]\[1\]
*956 cpu\.dec\.sched\.alu\.registers\.regs\[5\]\[2\]
*957 cpu\.dec\.sched\.alu\.registers\.regs\[5\]\[3\]
*958 cpu\.dec\.sched\.alu\.registers\.regs\[5\]\[4\]
*959 cpu\.dec\.sched\.alu\.registers\.regs\[5\]\[5\]
*960 cpu\.dec\.sched\.alu\.registers\.regs\[5\]\[6\]
*961 cpu\.dec\.sched\.alu\.registers\.regs\[5\]\[7\]
*962 cpu\.dec\.sched\.alu\.registers\.regs\[6\]\[0\]
*963 cpu\.dec\.sched\.alu\.registers\.regs\[6\]\[1\]
*964 cpu\.dec\.sched\.alu\.registers\.regs\[6\]\[2\]
*965 cpu\.dec\.sched\.alu\.registers\.regs\[6\]\[3\]
*966 cpu\.dec\.sched\.alu\.registers\.regs\[6\]\[4\]
*967 cpu\.dec\.sched\.alu\.registers\.regs\[6\]\[5\]
*968 cpu\.dec\.sched\.alu\.registers\.regs\[6\]\[6\]
*969 cpu\.dec\.sched\.alu\.registers\.regs\[6\]\[7\]
*970 cpu\.dec\.sched\.alu\.registers\.regs\[7\]\[0\]
*971 cpu\.dec\.sched\.alu\.registers\.regs\[7\]\[1\]
*972 cpu\.dec\.sched\.alu\.registers\.regs\[7\]\[2\]
*973 cpu\.dec\.sched\.alu\.registers\.regs\[7\]\[3\]
*974 cpu\.dec\.sched\.alu\.registers\.regs\[7\]\[4\]
*975 cpu\.dec\.sched\.alu\.registers\.regs\[7\]\[5\]
*976 cpu\.dec\.sched\.alu\.registers\.regs\[7\]\[6\]
*977 cpu\.dec\.sched\.alu\.registers\.regs\[7\]\[7\]
*978 cpu\.dec\.sched\.command_active
*979 cpu\.dec\.sched\.imm16_available
*980 cpu\.dec\.sched\.stage
*981 cpu\.dec\.sched\.tx_counter\[0\]
*982 cpu\.dec\.sched\.tx_counter\[1\]
*983 cpu\.dec\.sched\.tx_counter\[2\]
*984 cpu\.dec\.sched\.tx_counter\[3\]
*985 cpu\.dec\.stage
*986 cpu\.dec\.z
*987 cpu\.fifo\.entries\[1\]\[0\]
*988 cpu\.fifo\.entries\[1\]\[1\]
*989 cpu\.fifo\.entries\[2\]\[0\]
*990 cpu\.fifo\.entries\[2\]\[1\]
*991 cpu\.fifo\.entries\[3\]\[0\]
*992 cpu\.fifo\.entries\[3\]\[1\]
*993 cpu\.fifo\.entries\[4\]\[0\]
*994 cpu\.fifo\.entries\[4\]\[1\]
*995 cpu\.fifo\.num_entries\[0\]
*996 cpu\.fifo\.num_entries\[1\]
*997 cpu\.fifo\.num_entries\[2\]
*998 cpu\.pref\.carry
*999 cpu\.pref\.fifo\.last_entry\[0\]
*1000 cpu\.pref\.fifo\.last_entry\[10\]
*1001 cpu\.pref\.fifo\.last_entry\[11\]
*1002 cpu\.pref\.fifo\.last_entry\[12\]
*1003 cpu\.pref\.fifo\.last_entry\[13\]
*1004 cpu\.pref\.fifo\.last_entry\[14\]
*1005 cpu\.pref\.fifo\.last_entry\[15\]
*1006 cpu\.pref\.fifo\.last_entry\[1\]
*1007 cpu\.pref\.fifo\.last_entry\[2\]
*1008 cpu\.pref\.fifo\.last_entry\[3\]
*1009 cpu\.pref\.fifo\.last_entry\[4\]
*1010 cpu\.pref\.fifo\.last_entry\[5\]
*1011 cpu\.pref\.fifo\.last_entry\[6\]
*1012 cpu\.pref\.fifo\.last_entry\[7\]
*1013 cpu\.pref\.fifo\.last_entry\[8\]
*1014 cpu\.pref\.fifo\.last_entry\[9\]
*1015 cpu\.pref\.fifo\.last_valid
*1016 cpu\.pref\.fifo\.new_entry\[0\]
*1017 cpu\.pref\.fifo\.new_entry\[10\]
*1018 cpu\.pref\.fifo\.new_entry\[11\]
*1019 cpu\.pref\.fifo\.new_entry\[12\]
*1020 cpu\.pref\.fifo\.new_entry\[13\]
*1021 cpu\.pref\.fifo\.new_entry\[14\]
*1022 cpu\.pref\.fifo\.new_entry\[15\]
*1023 cpu\.pref\.fifo\.new_entry\[1\]
*1024 cpu\.pref\.fifo\.new_entry\[2\]
*1025 cpu\.pref\.fifo\.new_entry\[3\]
*1026 cpu\.pref\.fifo\.new_entry\[4\]
*1027 cpu\.pref\.fifo\.new_entry\[5\]
*1028 cpu\.pref\.fifo\.new_entry\[6\]
*1029 cpu\.pref\.fifo\.new_entry\[7\]
*1030 cpu\.pref\.fifo\.new_entry\[8\]
*1031 cpu\.pref\.fifo\.new_entry\[9\]
*1032 cpu\.pref\.fifo\.sr_entries\[0\]\[0\]
*1033 cpu\.pref\.fifo\.sr_entries\[0\]\[10\]
*1034 cpu\.pref\.fifo\.sr_entries\[0\]\[11\]
*1035 cpu\.pref\.fifo\.sr_entries\[0\]\[12\]
*1036 cpu\.pref\.fifo\.sr_entries\[0\]\[13\]
*1037 cpu\.pref\.fifo\.sr_entries\[0\]\[14\]
*1038 cpu\.pref\.fifo\.sr_entries\[0\]\[15\]
*1039 cpu\.pref\.fifo\.sr_entries\[0\]\[1\]
*1040 cpu\.pref\.fifo\.sr_entries\[0\]\[2\]
*1041 cpu\.pref\.fifo\.sr_entries\[0\]\[3\]
*1042 cpu\.pref\.fifo\.sr_entries\[0\]\[4\]
*1043 cpu\.pref\.fifo\.sr_entries\[0\]\[5\]
*1044 cpu\.pref\.fifo\.sr_entries\[0\]\[6\]
*1045 cpu\.pref\.fifo\.sr_entries\[0\]\[7\]
*1046 cpu\.pref\.fifo\.sr_entries\[0\]\[8\]
*1047 cpu\.pref\.fifo\.sr_entries\[0\]\[9\]
*1048 cpu\.pref\.fifo\.valid\[0\]
*1049 cpu\.pref\.imm_reg\[10\]
*1050 cpu\.pref\.imm_reg\[11\]
*1051 cpu\.pref\.imm_reg\[12\]
*1052 cpu\.pref\.imm_reg\[13\]
*1053 cpu\.pref\.imm_reg\[14\]
*1054 cpu\.pref\.imm_reg\[15\]
*1055 cpu\.pref\.imm_reg\[2\]
*1056 cpu\.pref\.imm_reg\[3\]
*1057 cpu\.pref\.imm_reg\[4\]
*1058 cpu\.pref\.imm_reg\[5\]
*1059 cpu\.pref\.imm_reg\[6\]
*1060 cpu\.pref\.imm_reg\[7\]
*1061 cpu\.pref\.imm_reg\[8\]
*1062 cpu\.pref\.imm_reg\[9\]
*1063 cpu\.pref\.num_flushed\[0\]
*1064 cpu\.pref\.num_flushed\[1\]
*1065 cpu\.pref\.num_prefetched\[0\]
*1066 cpu\.pref\.num_prefetched\[1\]
*1067 cpu\.pref\.pc\[0\]
*1068 cpu\.pref\.pc\[10\]
*1069 cpu\.pref\.pc\[11\]
*1070 cpu\.pref\.pc\[12\]
*1071 cpu\.pref\.pc\[13\]
*1072 cpu\.pref\.pc\[14\]
*1073 cpu\.pref\.pc\[15\]
*1074 cpu\.pref\.pc\[1\]
*1075 cpu\.pref\.pc\[2\]
*1076 cpu\.pref\.pc\[3\]
*1077 cpu\.pref\.pc\[4\]
*1078 cpu\.pref\.pc\[5\]
*1079 cpu\.pref\.pc\[6\]
*1080 cpu\.pref\.pc\[7\]
*1081 cpu\.pref\.pc\[8\]
*1082 cpu\.pref\.pc\[9\]
*1083 cpu\.pref\.sreg_full
*1084 cpu\.pref\.sum\[2\]
*1085 cpu\.sc_tx
*1086 net1
*1087 net100
*1088 net101
*1089 net102
*1090 net103
*1091 net104
*1092 net105
*1093 net106
*1094 net107
*1095 net108
*1096 net109
*1097 net110
*1098 net111
*1099 net112
*1100 net113
*1101 net114
*1102 net115
*1103 net116
*1104 net117
*1105 net118
*1106 net119
*1107 net120
*1108 net121
*1109 net122
*1110 net123
*1111 net124
*1112 net125
*1113 net126
*1114 net127
*1115 net128
*1116 net129
*1117 net130
*1118 net131
*1119 net132
*1120 net133
*1121 net134
*1122 net135
*1123 net136
*1124 net137
*1125 net138
*1126 net139
*1127 net140
*1128 net141
*1129 net142
*1130 net143
*1131 net144
*1132 net145
*1133 net146
*1134 net147
*1135 net148
*1136 net149
*1137 net150
*1138 net151
*1139 net152
*1140 net153
*1141 net154
*1142 net155
*1143 net156
*1144 net157
*1145 net158
*1146 net159
*1147 net160
*1148 net161
*1149 net162
*1150 net163
*1151 net164
*1152 net165
*1153 net166
*1154 net167
*1155 net168
*1156 net169
*1157 net170
*1158 net171
*1159 net172
*1160 net173
*1161 net174
*1162 net175
*1163 net176
*1164 net177
*1165 net178
*1166 net179
*1167 net180
*1168 net181
*1169 net182
*1170 net183
*1171 net184
*1172 net185
*1173 net186
*1174 net187
*1175 net188
*1176 net189
*1177 net190
*1178 net191
*1179 net192
*1180 net193
*1181 net194
*1182 net195
*1183 net196
*1184 net197
*1185 net198
*1186 net199
*1187 net2
*1188 net200
*1189 net201
*1190 net202
*1191 net203
*1192 net204
*1193 net205
*1194 net206
*1195 net207
*1196 net208
*1197 net209
*1198 net210
*1199 net211
*1200 net212
*1201 net213
*1202 net214
*1203 net215
*1204 net216
*1205 net217
*1206 net218
*1207 net219
*1208 net220
*1209 net221
*1210 net222
*1211 net223
*1212 net224
*1213 net225
*1214 net226
*1215 net227
*1216 net228
*1217 net229
*1218 net230
*1219 net231
*1220 net27
*1221 net28
*1222 net29
*1223 net3
*1224 net30
*1225 net31
*1226 net32
*1227 net33
*1228 net34
*1229 net35
*1230 net36
*1231 net37
*1232 net38
*1233 net39
*1234 net4
*1235 net40
*1236 net41
*1237 net42
*1238 net43
*1239 net44
*1240 net45
*1241 net46
*1242 net47
*1243 net48
*1244 net49
*1245 net5
*1246 net50
*1247 net51
*1248 net52
*1249 net53
*1250 net54
*1251 net55
*1252 net56
*1253 net57
*1254 net58
*1255 net59
*1256 net6
*1257 net60
*1258 net61
*1259 net62
*1260 net63
*1261 net64
*1262 net65
*1263 net66
*1264 net67
*1265 net68
*1266 net69
*1267 net70
*1268 net71
*1269 net72
*1270 net73
*1271 net74
*1272 net75
*1273 net76
*1274 net77
*1275 net78
*1276 net79
*1277 net80
*1278 net81
*1279 net82
*1280 net83
*1281 net84
*1282 net85
*1283 net86
*1284 net87
*1285 net88
*1286 net89
*1287 net90
*1288 net91
*1289 net92
*1290 net93
*1291 net94
*1292 net95
*1293 net96
*1294 net97
*1295 net98
*1296 net99
*1297 FILLER_0_0_113
*1298 FILLER_0_0_149
*1299 FILLER_0_0_15
*1300 FILLER_0_0_166
*1301 FILLER_0_0_185
*1302 FILLER_0_0_195
*1303 FILLER_0_0_197
*1304 FILLER_0_0_233
*1305 FILLER_0_0_245
*1306 FILLER_0_0_251
*1307 FILLER_0_0_253
*1308 FILLER_0_0_265
*1309 FILLER_0_0_27
*1310 FILLER_0_0_277
*1311 FILLER_0_0_281
*1312 FILLER_0_0_285
*1313 FILLER_0_0_29
*1314 FILLER_0_0_294
*1315 FILLER_0_0_3
*1316 FILLER_0_0_309
*1317 FILLER_0_0_326
*1318 FILLER_0_0_41
*1319 FILLER_0_0_53
*1320 FILLER_0_0_57
*1321 FILLER_0_0_66
*1322 FILLER_0_0_78
*1323 FILLER_0_0_85
*1324 FILLER_0_0_97
*1325 FILLER_0_10_113
*1326 FILLER_0_10_125
*1327 FILLER_0_10_131
*1328 FILLER_0_10_139
*1329 FILLER_0_10_141
*1330 FILLER_0_10_151
*1331 FILLER_0_10_161
*1332 FILLER_0_10_169
*1333 FILLER_0_10_183
*1334 FILLER_0_10_189
*1335 FILLER_0_10_197
*1336 FILLER_0_10_21
*1337 FILLER_0_10_231
*1338 FILLER_0_10_250
*1339 FILLER_0_10_282
*1340 FILLER_0_10_3
*1341 FILLER_0_10_318
*1342 FILLER_0_10_54
*1343 FILLER_0_10_80
*1344 FILLER_0_11_121
*1345 FILLER_0_11_129
*1346 FILLER_0_11_133
*1347 FILLER_0_11_137
*1348 FILLER_0_11_156
*1349 FILLER_0_11_165
*1350 FILLER_0_11_185
*1351 FILLER_0_11_20
*1352 FILLER_0_11_212
*1353 FILLER_0_11_234
*1354 FILLER_0_11_279
*1355 FILLER_0_11_281
*1356 FILLER_0_11_298
*1357 FILLER_0_11_3
*1358 FILLER_0_11_315
*1359 FILLER_0_11_331
*1360 FILLER_0_11_36
*1361 FILLER_0_11_54
*1362 FILLER_0_11_66
*1363 FILLER_0_11_75
*1364 FILLER_0_11_83
*1365 FILLER_0_11_96
*1366 FILLER_0_12_107
*1367 FILLER_0_12_115
*1368 FILLER_0_12_148
*1369 FILLER_0_12_153
*1370 FILLER_0_12_165
*1371 FILLER_0_12_171
*1372 FILLER_0_12_176
*1373 FILLER_0_12_187
*1374 FILLER_0_12_206
*1375 FILLER_0_12_249
*1376 FILLER_0_12_253
*1377 FILLER_0_12_29
*1378 FILLER_0_12_3
*1379 FILLER_0_12_307
*1380 FILLER_0_12_318
*1381 FILLER_0_12_46
*1382 FILLER_0_12_81
*1383 FILLER_0_13_108
*1384 FILLER_0_13_113
*1385 FILLER_0_13_135
*1386 FILLER_0_13_147
*1387 FILLER_0_13_190
*1388 FILLER_0_13_208
*1389 FILLER_0_13_212
*1390 FILLER_0_13_234
*1391 FILLER_0_13_254
*1392 FILLER_0_13_273
*1393 FILLER_0_13_29
*1394 FILLER_0_13_297
*1395 FILLER_0_13_3
*1396 FILLER_0_13_316
*1397 FILLER_0_13_33
*1398 FILLER_0_13_334
*1399 FILLER_0_13_52
*1400 FILLER_0_14_112
*1401 FILLER_0_14_141
*1402 FILLER_0_14_153
*1403 FILLER_0_14_169
*1404 FILLER_0_14_175
*1405 FILLER_0_14_188
*1406 FILLER_0_14_197
*1407 FILLER_0_14_207
*1408 FILLER_0_14_238
*1409 FILLER_0_14_248
*1410 FILLER_0_14_253
*1411 FILLER_0_14_26
*1412 FILLER_0_14_281
*1413 FILLER_0_14_3
*1414 FILLER_0_14_302
*1415 FILLER_0_14_334
*1416 FILLER_0_14_64
*1417 FILLER_0_14_83
*1418 FILLER_0_14_9
*1419 FILLER_0_15_104
*1420 FILLER_0_15_137
*1421 FILLER_0_15_161
*1422 FILLER_0_15_167
*1423 FILLER_0_15_169
*1424 FILLER_0_15_210
*1425 FILLER_0_15_222
*1426 FILLER_0_15_25
*1427 FILLER_0_15_252
*1428 FILLER_0_15_258
*1429 FILLER_0_15_279
*1430 FILLER_0_15_281
*1431 FILLER_0_15_3
*1432 FILLER_0_15_301
*1433 FILLER_0_15_314
*1434 FILLER_0_15_73
*1435 FILLER_0_15_94
*1436 FILLER_0_16_107
*1437 FILLER_0_16_137
*1438 FILLER_0_16_159
*1439 FILLER_0_16_173
*1440 FILLER_0_16_186
*1441 FILLER_0_16_194
*1442 FILLER_0_16_197
*1443 FILLER_0_16_208
*1444 FILLER_0_16_230
*1445 FILLER_0_16_245
*1446 FILLER_0_16_251
*1447 FILLER_0_16_253
*1448 FILLER_0_16_3
*1449 FILLER_0_16_333
*1450 FILLER_0_16_41
*1451 FILLER_0_16_67
*1452 FILLER_0_16_79
*1453 FILLER_0_16_85
*1454 FILLER_0_17_129
*1455 FILLER_0_17_14
*1456 FILLER_0_17_145
*1457 FILLER_0_17_163
*1458 FILLER_0_17_167
*1459 FILLER_0_17_169
*1460 FILLER_0_17_193
*1461 FILLER_0_17_213
*1462 FILLER_0_17_28
*1463 FILLER_0_17_318
*1464 FILLER_0_17_334
*1465 FILLER_0_17_47
*1466 FILLER_0_17_66
*1467 FILLER_0_17_82
*1468 FILLER_0_18_112
*1469 FILLER_0_18_121
*1470 FILLER_0_18_138
*1471 FILLER_0_18_144
*1472 FILLER_0_18_152
*1473 FILLER_0_18_168
*1474 FILLER_0_18_194
*1475 FILLER_0_18_197
*1476 FILLER_0_18_202
*1477 FILLER_0_18_210
*1478 FILLER_0_18_247
*1479 FILLER_0_18_253
*1480 FILLER_0_18_3
*1481 FILLER_0_18_315
*1482 FILLER_0_18_38
*1483 FILLER_0_18_42
*1484 FILLER_0_18_52
*1485 FILLER_0_18_83
*1486 FILLER_0_18_85
*1487 FILLER_0_19_101
*1488 FILLER_0_19_107
*1489 FILLER_0_19_111
*1490 FILLER_0_19_113
*1491 FILLER_0_19_12
*1492 FILLER_0_19_132
*1493 FILLER_0_19_148
*1494 FILLER_0_19_164
*1495 FILLER_0_19_189
*1496 FILLER_0_19_206
*1497 FILLER_0_19_23
*1498 FILLER_0_19_279
*1499 FILLER_0_19_298
*1500 FILLER_0_19_3
*1501 FILLER_0_1_110
*1502 FILLER_0_1_138
*1503 FILLER_0_1_15
*1504 FILLER_0_1_178
*1505 FILLER_0_1_222
*1506 FILLER_0_1_225
*1507 FILLER_0_1_237
*1508 FILLER_0_1_247
*1509 FILLER_0_1_259
*1510 FILLER_0_1_27
*1511 FILLER_0_1_271
*1512 FILLER_0_1_289
*1513 FILLER_0_1_3
*1514 FILLER_0_1_307
*1515 FILLER_0_1_313
*1516 FILLER_0_1_330
*1517 FILLER_0_1_334
*1518 FILLER_0_1_39
*1519 FILLER_0_1_54
*1520 FILLER_0_1_66
*1521 FILLER_0_1_70
*1522 FILLER_0_1_81
*1523 FILLER_0_20_105
*1524 FILLER_0_20_134
*1525 FILLER_0_20_150
*1526 FILLER_0_20_158
*1527 FILLER_0_20_193
*1528 FILLER_0_20_197
*1529 FILLER_0_20_209
*1530 FILLER_0_20_21
*1531 FILLER_0_20_213
*1532 FILLER_0_20_231
*1533 FILLER_0_20_235
*1534 FILLER_0_20_251
*1535 FILLER_0_20_253
*1536 FILLER_0_20_3
*1537 FILLER_0_20_333
*1538 FILLER_0_20_51
*1539 FILLER_0_20_60
*1540 FILLER_0_20_72
*1541 FILLER_0_20_82
*1542 FILLER_0_21_100
*1543 FILLER_0_21_11
*1544 FILLER_0_21_113
*1545 FILLER_0_21_117
*1546 FILLER_0_21_125
*1547 FILLER_0_21_144
*1548 FILLER_0_21_148
*1549 FILLER_0_21_157
*1550 FILLER_0_21_165
*1551 FILLER_0_21_169
*1552 FILLER_0_21_176
*1553 FILLER_0_21_196
*1554 FILLER_0_21_21
*1555 FILLER_0_21_214
*1556 FILLER_0_21_218
*1557 FILLER_0_21_222
*1558 FILLER_0_21_234
*1559 FILLER_0_21_278
*1560 FILLER_0_21_298
*1561 FILLER_0_21_3
*1562 FILLER_0_21_32
*1563 FILLER_0_21_334
*1564 FILLER_0_21_83
*1565 FILLER_0_22_100
*1566 FILLER_0_22_11
*1567 FILLER_0_22_113
*1568 FILLER_0_22_117
*1569 FILLER_0_22_129
*1570 FILLER_0_22_137
*1571 FILLER_0_22_141
*1572 FILLER_0_22_152
*1573 FILLER_0_22_170
*1574 FILLER_0_22_194
*1575 FILLER_0_22_203
*1576 FILLER_0_22_213
*1577 FILLER_0_22_227
*1578 FILLER_0_22_245
*1579 FILLER_0_22_25
*1580 FILLER_0_22_251
*1581 FILLER_0_22_3
*1582 FILLER_0_22_309
*1583 FILLER_0_22_34
*1584 FILLER_0_22_41
*1585 FILLER_0_22_50
*1586 FILLER_0_22_54
*1587 FILLER_0_22_68
*1588 FILLER_0_22_76
*1589 FILLER_0_22_81
*1590 FILLER_0_22_85
*1591 FILLER_0_23_10
*1592 FILLER_0_23_101
*1593 FILLER_0_23_122
*1594 FILLER_0_23_130
*1595 FILLER_0_23_165
*1596 FILLER_0_23_18
*1597 FILLER_0_23_182
*1598 FILLER_0_23_190
*1599 FILLER_0_23_202
*1600 FILLER_0_23_223
*1601 FILLER_0_23_232
*1602 FILLER_0_23_24
*1603 FILLER_0_23_245
*1604 FILLER_0_23_279
*1605 FILLER_0_23_298
*1606 FILLER_0_23_31
*1607 FILLER_0_23_325
*1608 FILLER_0_23_43
*1609 FILLER_0_23_49
*1610 FILLER_0_23_93
*1611 FILLER_0_24_118
*1612 FILLER_0_24_137
*1613 FILLER_0_24_147
*1614 FILLER_0_24_153
*1615 FILLER_0_24_169
*1616 FILLER_0_24_173
*1617 FILLER_0_24_189
*1618 FILLER_0_24_21
*1619 FILLER_0_24_211
*1620 FILLER_0_24_246
*1621 FILLER_0_24_253
*1622 FILLER_0_24_27
*1623 FILLER_0_24_272
*1624 FILLER_0_24_29
*1625 FILLER_0_24_3
*1626 FILLER_0_24_318
*1627 FILLER_0_24_37
*1628 FILLER_0_24_41
*1629 FILLER_0_24_46
*1630 FILLER_0_24_54
*1631 FILLER_0_24_68
*1632 FILLER_0_24_81
*1633 FILLER_0_24_85
*1634 FILLER_0_24_97
*1635 FILLER_0_25_11
*1636 FILLER_0_25_110
*1637 FILLER_0_25_127
*1638 FILLER_0_25_147
*1639 FILLER_0_25_162
*1640 FILLER_0_25_177
*1641 FILLER_0_25_193
*1642 FILLER_0_25_216
*1643 FILLER_0_25_22
*1644 FILLER_0_25_222
*1645 FILLER_0_25_237
*1646 FILLER_0_25_278
*1647 FILLER_0_25_28
*1648 FILLER_0_25_290
*1649 FILLER_0_25_3
*1650 FILLER_0_25_318
*1651 FILLER_0_25_334
*1652 FILLER_0_25_36
*1653 FILLER_0_25_42
*1654 FILLER_0_25_52
*1655 FILLER_0_25_74
*1656 FILLER_0_25_86
*1657 FILLER_0_26_100
*1658 FILLER_0_26_116
*1659 FILLER_0_26_141
*1660 FILLER_0_26_149
*1661 FILLER_0_26_156
*1662 FILLER_0_26_184
*1663 FILLER_0_26_192
*1664 FILLER_0_26_200
*1665 FILLER_0_26_212
*1666 FILLER_0_26_230
*1667 FILLER_0_26_251
*1668 FILLER_0_26_253
*1669 FILLER_0_26_265
*1670 FILLER_0_26_29
*1671 FILLER_0_26_290
*1672 FILLER_0_26_334
*1673 FILLER_0_26_46
*1674 FILLER_0_26_66
*1675 FILLER_0_27_106
*1676 FILLER_0_27_111
*1677 FILLER_0_27_127
*1678 FILLER_0_27_140