*SPEF "ieee 1481-1999"
*DESIGN "tt_um_toivoh_basilisc_2816"
*DATE "16:21:58 Monday May 20, 2024"
*VENDOR "The OpenROAD Project"
*PROGRAM "OpenROAD"
*VERSION "da0053d7b0014ab9c87ea148875ff6c2a0f9b658"
*DESIGN_FLOW "NAME_SCOPE LOCAL" "PIN_CAP NONE"
*DIVIDER /
*DELIMITER :
*BUS_DELIMITER []
*T_UNIT 1 NS
*C_UNIT 1 PF
*R_UNIT 1 OHM
*L_UNIT 1 HENRY

*NAME_MAP
*3 clk
*4 ena
*5 rst_n
*6 ui_in[0]
*7 ui_in[1]
*8 ui_in[2]
*9 ui_in[3]
*10 ui_in[4]
*11 ui_in[5]
*12 ui_in[6]
*13 ui_in[7]
*14 uio_in[0]
*15 uio_in[1]
*16 uio_in[2]
*17 uio_in[3]
*18 uio_in[4]
*19 uio_in[5]
*20 uio_in[6]
*21 uio_in[7]
*22 net4
*23 net5
*24 net6
*25 net7
*26 net8
*27 net9
*28 net10
*29 net11
*30 net12
*31 net13
*32 net14
*33 net15
*34 net16
*35 net17
*36 net18
*37 net19
*38 uo_out[0]
*39 uo_out[1]
*40 uo_out[2]
*41 uo_out[3]
*42 net20
*43 net21
*44 net22
*45 net23
*46 _0000_
*47 _0001_
*48 _0002_
*49 _0003_
*50 _0004_
*51 _0005_
*52 _0006_
*53 _0007_
*54 _0008_
*55 _0009_
*56 _0010_
*57 _0011_
*58 _0012_
*59 _0013_
*60 _0014_
*61 _0015_
*62 _0016_
*63 _0017_
*64 _0018_
*65 _0019_
*66 _0020_
*67 _0021_
*68 _0022_
*69 _0023_
*70 _0024_
*71 _0025_
*72 _0026_
*73 _0027_
*74 _0028_
*75 _0029_
*76 _0030_
*77 _0031_
*78 _0032_
*79 _0033_
*80 _0034_
*81 _0035_
*82 _0036_
*83 _0037_
*84 _0038_
*85 _0039_
*86 _0040_
*87 _0041_
*88 _0042_
*89 _0043_
*90 _0044_
*91 _0045_
*92 _0046_
*93 _0047_
*94 _0048_
*95 _0049_
*96 _0050_
*97 _0051_
*98 _0052_
*99 _0053_
*100 _0054_
*101 _0055_
*102 _0056_
*103 _0057_
*104 _0058_
*105 _0059_
*106 _0060_
*107 _0061_
*108 _0062_
*109 _0063_
*110 _0064_
*111 _0065_
*112 _0066_
*113 _0067_
*114 _0068_
*115 _0069_
*116 _0070_
*117 _0071_
*118 _0072_
*119 _0073_
*120 _0074_
*121 _0075_
*122 _0076_
*123 _0077_
*124 _0078_
*125 _0079_
*126 _0080_
*127 _0081_
*128 _0082_
*129 _0083_
*130 _0084_
*131 _0085_
*132 _0086_
*133 _0087_
*134 _0088_
*135 _0089_
*136 _0090_
*137 _0091_
*138 _0092_
*139 _0093_
*140 _0094_
*141 _0095_
*142 _0096_
*143 _0097_
*144 _0098_
*145 _0099_
*146 _0100_
*147 _0101_
*148 _0102_
*149 _0103_
*150 _0104_
*151 _0105_
*152 _0106_
*153 _0107_
*154 _0108_
*155 _0109_
*156 _0110_
*157 _0111_
*158 _0112_
*159 _0113_
*160 _0114_
*161 _0115_
*162 _0116_
*163 _0117_
*164 _0118_
*165 _0119_
*166 _0120_
*167 _0121_
*168 _0122_
*169 _0123_
*170 _0124_
*171 _0125_
*172 _0126_
*173 _0127_
*174 _0128_
*175 _0129_
*176 _0130_
*177 _0131_
*178 _0132_
*179 _0133_
*180 _0134_
*181 _0135_
*182 _0136_
*183 _0137_
*184 _0138_
*185 _0139_
*186 _0140_
*187 _0141_
*188 _0142_
*189 _0143_
*190 _0144_
*191 _0145_
*192 _0146_
*193 _0147_
*194 _0148_
*195 _0149_
*196 _0150_
*197 _0151_
*198 _0152_
*199 _0153_
*200 _0154_
*201 _0155_
*202 _0156_
*203 _0157_
*204 _0158_
*205 _0159_
*206 _0160_
*207 _0161_
*208 _0162_
*209 _0163_
*210 _0164_
*211 _0165_
*212 _0166_
*213 _0167_
*214 _0168_
*215 _0169_
*216 _0170_
*217 _0171_
*218 _0172_
*219 _0173_
*220 _0174_
*221 _0175_
*222 _0176_
*223 _0177_
*224 _0178_
*225 _0179_
*226 _0180_
*227 _0181_
*228 _0182_
*229 _0183_
*230 _0184_
*231 _0185_
*232 _0186_
*233 _0187_
*234 _0188_
*235 _0189_
*236 _0190_
*237 _0191_
*238 _0192_
*239 _0193_
*240 _0194_
*241 _0195_
*242 _0196_
*243 _0197_
*244 _0198_
*245 _0199_
*246 _0200_
*247 _0201_
*248 _0202_
*249 _0203_
*250 _0204_
*251 _0205_
*252 _0206_
*253 _0207_
*254 _0208_
*255 _0209_
*256 _0210_
*257 _0211_
*258 _0212_
*259 _0213_
*260 _0214_
*261 _0215_
*262 _0216_
*263 _0217_
*264 _0218_
*265 _0219_
*266 _0220_
*267 _0221_
*268 _0222_
*269 _0223_
*270 _0224_
*271 _0225_
*272 _0226_
*273 _0227_
*274 _0228_
*275 _0229_
*276 _0230_
*277 _0231_
*278 _0232_
*279 _0233_
*280 _0234_
*281 _0235_
*282 _0236_
*283 _0237_
*284 _0238_
*285 _0239_
*286 _0240_
*287 _0241_
*288 _0242_
*289 _0243_
*290 _0244_
*291 _0245_
*292 _0246_
*293 _0247_
*294 _0248_
*295 _0249_
*296 _0250_
*297 _0251_
*298 _0252_
*299 _0253_
*300 _0254_
*301 _0255_
*302 _0256_
*303 _0257_
*304 _0258_
*305 _0259_
*306 _0260_
*307 _0261_
*308 _0262_
*309 _0263_
*310 _0264_
*311 _0265_
*312 _0266_
*313 _0267_
*314 _0268_
*315 _0269_
*316 _0270_
*317 _0271_
*318 _0272_
*319 _0273_
*320 _0274_
*321 _0275_
*322 _0276_
*323 _0277_
*324 _0278_
*325 _0279_
*326 _0280_
*327 _0281_
*328 _0282_
*329 _0283_
*330 _0284_
*331 _0285_
*332 _0286_
*333 _0287_
*334 _0288_
*335 _0289_
*336 _0290_
*337 _0291_
*338 _0292_
*339 _0293_
*340 _0294_
*341 _0295_
*342 _0296_
*343 _0297_
*344 _0298_
*345 _0299_
*346 _0300_
*347 _0301_
*348 _0302_
*349 _0303_
*350 _0304_
*351 _0305_
*352 _0306_
*353 _0307_
*354 _0308_
*355 _0309_
*356 _0310_
*357 _0311_
*358 _0312_
*359 _0313_
*360 _0314_
*361 _0315_
*362 _0316_
*363 _0317_
*364 _0318_
*365 _0319_
*366 _0320_
*367 _0321_
*368 _0322_
*369 _0323_
*370 _0324_
*371 _0325_
*372 _0326_
*373 _0327_
*374 _0328_
*375 _0329_
*376 _0330_
*377 _0331_
*378 _0332_
*379 _0333_
*380 _0334_
*381 _0335_
*382 _0336_
*383 _0337_
*384 _0338_
*385 _0339_
*386 _0340_
*387 _0341_
*388 _0342_
*389 _0343_
*390 _0344_
*391 _0345_
*392 _0346_
*393 _0347_
*394 _0348_
*395 _0349_
*396 _0350_
*397 _0351_
*398 _0352_
*399 _0353_
*400 _0354_
*401 _0355_
*402 _0356_
*403 _0357_
*404 _0358_
*405 _0359_
*406 _0360_
*407 _0361_
*408 _0362_
*409 _0363_
*410 _0364_
*411 _0365_
*412 _0366_
*413 _0367_
*414 _0368_
*415 _0369_
*416 _0370_
*417 _0371_
*418 _0372_
*419 _0373_
*420 _0374_
*421 _0375_
*422 _0376_
*423 _0377_
*424 _0378_
*425 _0379_
*426 _0380_
*427 _0381_
*428 _0382_
*429 _0383_
*430 _0384_
*431 _0385_
*432 _0386_
*433 _0387_
*434 _0388_
*435 _0389_
*436 _0390_
*437 _0391_
*438 _0392_
*439 _0393_
*440 _0394_
*441 _0395_
*442 _0396_
*443 _0397_
*444 _0398_
*445 _0399_
*446 _0400_
*447 _0401_
*448 _0402_
*449 _0403_
*450 _0404_
*451 _0405_
*452 _0406_
*453 _0407_
*454 _0408_
*455 _0409_
*456 _0410_
*457 _0411_
*458 _0412_
*459 _0413_
*460 _0414_
*461 _0415_
*462 _0416_
*463 _0417_
*464 _0418_
*465 _0419_
*466 _0420_
*467 _0421_
*468 _0422_
*469 _0423_
*470 _0424_
*471 _0425_
*472 _0426_
*473 _0427_
*474 _0428_
*475 _0429_
*476 _0430_
*477 _0431_
*478 _0432_
*479 _0433_
*480 _0434_
*481 _0435_
*482 _0436_
*483 _0437_
*484 _0438_
*485 _0439_
*486 _0440_
*487 _0441_
*488 _0442_
*489 _0443_
*490 _0444_
*491 _0445_
*492 _0446_
*493 _0447_
*494 _0448_
*495 _0449_
*496 _0450_
*497 _0451_
*498 _0452_
*499 _0453_
*500 _0454_
*501 _0455_
*502 _0456_
*503 _0457_
*504 _0458_
*505 _0459_
*506 _0460_
*507 _0461_
*508 _0462_
*509 _0463_
*510 _0464_
*511 _0465_
*512 _0466_
*513 _0467_
*514 _0468_
*515 _0469_
*516 _0470_
*517 _0471_
*518 _0472_
*519 _0473_
*520 _0474_
*521 _0475_
*522 _0476_
*523 _0477_
*524 _0478_
*525 _0479_
*526 _0480_
*527 _0481_
*528 _0482_
*529 _0483_
*530 _0484_
*531 _0485_
*532 _0486_
*533 _0487_
*534 _0488_
*535 _0489_
*536 _0490_
*537 _0491_
*538 _0492_
*539 _0493_
*540 _0494_
*541 _0495_
*542 _0496_
*543 _0497_
*544 _0498_
*545 _0499_
*546 _0500_
*547 _0501_
*548 _0502_
*549 _0503_
*550 _0504_
*551 _0505_
*552 _0506_
*553 _0507_
*554 _0508_
*555 _0509_
*556 _0510_
*557 _0511_
*558 _0512_
*559 _0513_
*560 _0514_
*561 _0515_
*562 _0516_
*563 _0517_
*564 _0518_
*565 _0519_
*566 _0520_
*567 _0521_
*568 _0522_
*569 _0523_
*570 _0524_
*571 _0525_
*572 _0526_
*573 _0527_
*574 _0528_
*575 _0529_
*576 _0530_
*577 _0531_
*578 _0532_
*579 _0533_
*580 _0534_
*581 _0535_
*582 _0536_
*583 _0537_
*584 _0538_
*585 _0539_
*586 _0540_
*587 _0541_
*588 _0542_
*589 _0543_
*590 _0544_
*591 _0545_
*592 _0546_
*593 _0547_
*594 _0548_
*595 _0549_
*596 _0550_
*597 _0551_
*598 _0552_
*599 _0553_
*600 _0554_
*601 _0555_
*602 _0556_
*603 _0557_
*604 _0558_
*605 _0559_
*606 _0560_
*607 _0561_
*608 _0562_
*609 _0563_
*610 _0564_
*611 _0565_
*612 _0566_
*613 _0567_
*614 _0568_
*615 _0569_
*616 _0570_
*617 _0571_
*618 _0572_
*619 _0573_
*620 _0574_
*621 _0575_
*622 _0576_
*623 _0577_
*624 _0578_
*625 _0579_
*626 _0580_
*627 _0581_
*628 _0582_
*629 _0583_
*630 _0584_
*631 _0585_
*632 _0586_
*633 _0587_
*634 _0588_
*635 _0589_
*636 _0590_
*637 _0591_
*638 _0592_
*639 _0593_
*640 _0594_
*641 _0595_
*642 _0596_
*643 _0597_
*644 _0598_
*645 _0599_
*646 _0600_
*647 _0601_
*648 _0602_
*649 _0603_
*650 _0604_
*651 _0605_
*652 _0606_
*653 _0607_
*654 _0608_
*655 _0609_
*656 _0610_
*657 _0611_
*658 _0612_
*659 _0613_
*660 _0614_
*661 _0615_
*662 _0616_
*663 _0617_
*664 _0618_
*665 _0619_
*666 _0620_
*667 _0621_
*668 _0622_
*669 _0623_
*670 _0624_
*671 _0625_
*672 _0626_
*673 _0627_
*674 _0628_
*675 _0629_
*676 _0630_
*677 _0631_
*678 _0632_
*679 _0633_
*680 _0634_
*681 _0635_
*682 _0636_
*683 _0637_
*684 _0638_
*685 _0639_
*686 _0640_
*687 _0641_
*688 _0642_
*689 _0643_
*690 _0644_
*691 _0645_
*692 _0646_
*693 _0647_
*694 _0648_
*695 _0649_
*696 _0650_
*697 _0651_
*698 _0652_
*699 _0653_
*700 _0654_
*701 _0655_
*702 _0656_
*703 _0657_
*704 _0658_
*705 _0659_
*706 _0660_
*707 _0661_
*708 _0662_
*709 _0663_
*710 _0664_
*711 _0665_
*712 _0666_
*713 _0667_
*714 _0668_
*715 _0669_
*716 _0670_
*717 _0671_
*718 _0672_
*719 _0673_
*720 _0674_
*721 _0675_
*722 _0676_
*723 _0677_
*724 _0678_
*725 _0679_
*726 _0680_
*727 _0681_
*728 _0682_
*729 _0683_
*730 _0684_
*731 _0685_
*732 _0686_
*733 _0687_
*734 _0688_
*735 _0689_
*736 _0690_
*737 _0691_
*738 _0692_
*739 _0693_
*740 _0694_
*741 _0695_
*742 _0696_
*743 _0697_
*744 _0698_
*745 _0699_
*746 _0700_
*747 _0701_
*748 _0702_
*749 _0703_
*750 _0704_
*751 _0705_
*752 _0706_
*753 _0707_
*754 _0708_
*755 _0709_
*756 _0710_
*757 _0711_
*758 _0712_
*759 _0713_
*760 _0714_
*761 _0715_
*762 _0716_
*763 _0717_
*764 _0718_
*765 _0719_
*766 _0720_
*767 _0721_
*768 _0722_
*769 _0723_
*770 _0724_
*771 _0725_
*772 _0726_
*773 _0727_
*774 _0728_
*775 _0729_
*776 _0730_
*777 _0731_
*778 _0732_
*779 _0733_
*780 _0734_
*781 _0735_
*782 _0736_
*783 _0737_
*784 _0738_
*785 _0739_
*786 _0740_
*787 _0741_
*788 _0742_
*789 _0743_
*790 _0744_
*791 _0745_
*792 _0746_
*793 _0747_
*794 _0748_
*795 _0749_
*796 _0750_
*797 _0751_
*798 _0752_
*799 _0753_
*800 _0754_
*801 _0755_
*802 _0756_
*803 _0757_
*804 _0758_
*805 _0759_
*806 _0760_
*807 _0761_
*808 _0762_
*809 _0763_
*810 _0764_
*811 _0765_
*812 _0766_
*813 _0767_
*814 _0768_
*815 _0769_
*816 _0770_
*817 _0771_
*818 _0772_
*819 _0773_
*820 _0774_
*821 _0775_
*822 _0776_
*823 _0777_
*824 _0778_
*825 _0779_
*826 _0780_
*827 _0781_
*828 _0782_
*829 _0783_
*830 _0784_
*831 _0785_
*832 _0786_
*833 _0787_
*834 _0788_
*835 _0789_
*836 _0790_
*837 _0791_
*838 _0792_
*839 _0793_
*840 _0794_
*841 _0795_
*842 _0796_
*843 _0797_
*844 _0798_
*845 _0799_
*846 _0800_
*847 _0801_
*848 _0802_
*849 _0803_
*850 _0804_
*851 _0805_
*852 _0806_
*853 _0807_
*854 _0808_
*855 _0809_
*856 _0810_
*857 _0811_
*858 _0812_
*859 _0813_
*860 _0814_
*861 _0815_
*862 _0816_
*863 _0817_
*864 _0818_
*865 _0819_
*866 _0820_
*867 _0821_
*868 _0822_
*869 _0823_
*870 _0824_
*871 _0825_
*872 _0826_
*873 _0827_
*874 _0828_
*875 _0829_
*876 _0830_
*877 _0831_
*878 _0832_
*879 _0833_
*880 _0834_
*881 _0835_
*882 _0836_
*883 _0837_
*884 _0838_
*885 _0839_
*886 _0840_
*887 _0841_
*888 _0842_
*889 _0843_
*890 _0844_
*891 _0845_
*892 _0846_
*893 _0847_
*894 _0848_
*895 _0849_
*896 _0850_
*897 _0851_
*898 _0852_
*899 _0853_
*900 _0854_
*901 _0855_
*902 _0856_
*903 _0857_
*904 _0858_
*905 _0859_
*906 _0860_
*907 _0861_
*908 _0862_
*909 _0863_
*910 _0864_
*911 _0865_
*912 _0866_
*913 _0867_
*914 _0868_
*915 _0869_
*916 _0870_
*917 _0871_
*918 _0872_
*919 _0873_
*920 _0874_
*921 _0875_
*922 _0876_
*923 _0877_
*924 _0878_
*925 _0879_
*926 _0880_
*927 _0881_
*928 _0882_
*929 _0883_
*930 _0884_
*931 _0885_
*932 _0886_
*933 _0887_
*934 _0888_
*935 _0889_
*936 _0890_
*937 _0891_
*938 _0892_
*939 _0893_
*940 _0894_
*941 _0895_
*942 _0896_
*943 _0897_
*944 _0898_
*945 _0899_
*946 _0900_
*947 _0901_
*948 _0902_
*949 _0903_
*950 _0904_
*951 _0905_
*952 _0906_
*953 _0907_
*954 _0908_
*955 _0909_
*956 _0910_
*957 _0911_
*958 _0912_
*959 _0913_
*960 _0914_
*961 _0915_
*962 _0916_
*963 clknet_0_clk
*964 clknet_1_0__leaf_clk
*965 clknet_1_1__leaf_clk
*966 clknet_leaf_0_clk
*967 clknet_leaf_10_clk
*968 clknet_leaf_1_clk
*969 clknet_leaf_2_clk
*970 clknet_leaf_3_clk
*971 clknet_leaf_4_clk
*972 clknet_leaf_5_clk
*973 clknet_leaf_6_clk
*974 clknet_leaf_7_clk
*975 clknet_leaf_8_clk
*976 clknet_leaf_9_clk
*977 cpu\.comp_counter\[0\]
*978 cpu\.comp_counter\[1\]
*979 cpu\.comp_counter\[2\]
*980 cpu\.curr_sc_tx
*981 cpu\.dec\.aaa\[0\]
*982 cpu\.dec\.aaa\[1\]
*983 cpu\.dec\.aaa\[2\]
*984 cpu\.dec\.addr_reg2\[0\]
*985 cpu\.dec\.addr_reg2\[1\]
*986 cpu\.dec\.addr_reg2\[2\]
*987 cpu\.dec\.arg1_reg\[1\]
*988 cpu\.dec\.arg1_reg\[2\]
*989 cpu\.dec\.arg2_enc\[3\]
*990 cpu\.dec\.arg2_enc\[4\]
*991 cpu\.dec\.arg2_enc\[5\]
*992 cpu\.dec\.b8
*993 cpu\.dec\.d
*994 cpu\.dec\.e
*995 cpu\.dec\.imm_data_in\[0\]
*996 cpu\.dec\.imm_data_in\[1\]
*997 cpu\.dec\.imm_full\[10\]
*998 cpu\.dec\.imm_full\[11\]
*999 cpu\.dec\.imm_full\[12\]
*1000 cpu\.dec\.imm_full\[13\]
*1001 cpu\.dec\.imm_full\[14\]
*1002 cpu\.dec\.imm_full\[15\]
*1003 cpu\.dec\.imm_full\[2\]
*1004 cpu\.dec\.imm_full\[3\]
*1005 cpu\.dec\.imm_full\[4\]
*1006 cpu\.dec\.imm_full\[5\]
*1007 cpu\.dec\.imm_full\[6\]
*1008 cpu\.dec\.imm_full\[7\]
*1009 cpu\.dec\.imm_full\[8\]
*1010 cpu\.dec\.imm_full\[9\]
*1011 cpu\.dec\.inst_valid
*1012 cpu\.dec\.m
*1013 cpu\.dec\.rx_counter\[0\]
*1014 cpu\.dec\.rx_counter\[1\]
*1015 cpu\.dec\.rx_counter\[2\]
*1016 cpu\.dec\.rx_counter\[3\]
*1017 cpu\.dec\.rx_pins\[0\]
*1018 cpu\.dec\.rx_pins\[1\]
*1019 cpu\.dec\.sched\.alu\.arg2_01\[1\]
*1020 cpu\.dec\.sched\.alu\.carry
*1021 cpu\.dec\.sched\.alu\.flag_c
*1022 cpu\.dec\.sched\.alu\.flag_s
*1023 cpu\.dec\.sched\.alu\.flag_v
*1024 cpu\.dec\.sched\.alu\.flag_z
*1025 cpu\.dec\.sched\.alu\.next_carry
*1026 cpu\.dec\.sched\.alu\.old_arg2_bit
*1027 cpu\.dec\.sched\.alu\.registers\.regs\[0\]\[0\]
*1028 cpu\.dec\.sched\.alu\.registers\.regs\[0\]\[1\]
*1029 cpu\.dec\.sched\.alu\.registers\.regs\[0\]\[2\]
*1030 cpu\.dec\.sched\.alu\.registers\.regs\[0\]\[3\]
*1031 cpu\.dec\.sched\.alu\.registers\.regs\[0\]\[4\]
*1032 cpu\.dec\.sched\.alu\.registers\.regs\[0\]\[5\]
*1033 cpu\.dec\.sched\.alu\.registers\.regs\[0\]\[6\]
*1034 cpu\.dec\.sched\.alu\.registers\.regs\[0\]\[7\]
*1035 cpu\.dec\.sched\.alu\.registers\.regs\[1\]\[0\]
*1036 cpu\.dec\.sched\.alu\.registers\.regs\[1\]\[1\]
*1037 cpu\.dec\.sched\.alu\.registers\.regs\[1\]\[2\]
*1038 cpu\.dec\.sched\.alu\.registers\.regs\[1\]\[3\]
*1039 cpu\.dec\.sched\.alu\.registers\.regs\[1\]\[4\]
*1040 cpu\.dec\.sched\.alu\.registers\.regs\[1\]\[5\]
*1041 cpu\.dec\.sched\.alu\.registers\.regs\[1\]\[6\]
*1042 cpu\.dec\.sched\.alu\.registers\.regs\[1\]\[7\]
*1043 cpu\.dec\.sched\.alu\.registers\.regs\[2\]\[0\]
*1044 cpu\.dec\.sched\.alu\.registers\.regs\[2\]\[1\]
*1045 cpu\.dec\.sched\.alu\.registers\.regs\[2\]\[2\]
*1046 cpu\.dec\.sched\.alu\.registers\.regs\[2\]\[3\]
*1047 cpu\.dec\.sched\.alu\.registers\.regs\[2\]\[4\]
*1048 cpu\.dec\.sched\.alu\.registers\.regs\[2\]\[5\]
*1049 cpu\.dec\.sched\.alu\.registers\.regs\[2\]\[6\]
*1050 cpu\.dec\.sched\.alu\.registers\.regs\[2\]\[7\]
*1051 cpu\.dec\.sched\.alu\.registers\.regs\[3\]\[0\]
*1052 cpu\.dec\.sched\.alu\.registers\.regs\[3\]\[1\]
*1053 cpu\.dec\.sched\.alu\.registers\.regs\[3\]\[2\]
*1054 cpu\.dec\.sched\.alu\.registers\.regs\[3\]\[3\]
*1055 cpu\.dec\.sched\.alu\.registers\.regs\[3\]\[4\]
*1056 cpu\.dec\.sched\.alu\.registers\.regs\[3\]\[5\]
*1057 cpu\.dec\.sched\.alu\.registers\.regs\[3\]\[6\]
*1058 cpu\.dec\.sched\.alu\.registers\.regs\[3\]\[7\]
*1059 cpu\.dec\.sched\.alu\.registers\.regs\[4\]\[0\]
*1060 cpu\.dec\.sched\.alu\.registers\.regs\[4\]\[1\]
*1061 cpu\.dec\.sched\.alu\.registers\.regs\[4\]\[2\]
*1062 cpu\.dec\.sched\.alu\.registers\.regs\[4\]\[3\]
*1063 cpu\.dec\.sched\.alu\.registers\.regs\[4\]\[4\]
*1064 cpu\.dec\.sched\.alu\.registers\.regs\[4\]\[5\]
*1065 cpu\.dec\.sched\.alu\.registers\.regs\[4\]\[6\]
*1066 cpu\.dec\.sched\.alu\.registers\.regs\[4\]\[7\]
*1067 cpu\.dec\.sched\.alu\.registers\.regs\[5\]\[0\]
*1068 cpu\.dec\.sched\.alu\.registers\.regs\[5\]\[1\]
*1069 cpu\.dec\.sched\.alu\.registers\.regs\[5\]\[2\]
*1070 cpu\.dec\.sched\.alu\.registers\.regs\[5\]\[3\]
*1071 cpu\.dec\.sched\.alu\.registers\.regs\[5\]\[4\]
*1072 cpu\.dec\.sched\.alu\.registers\.regs\[5\]\[5\]
*1073 cpu\.dec\.sched\.alu\.registers\.regs\[5\]\[6\]
*1074 cpu\.dec\.sched\.alu\.registers\.regs\[5\]\[7\]
*1075 cpu\.dec\.sched\.alu\.registers\.regs\[6\]\[0\]
*1076 cpu\.dec\.sched\.alu\.registers\.regs\[6\]\[1\]
*1077 cpu\.dec\.sched\.alu\.registers\.regs\[6\]\[2\]
*1078 cpu\.dec\.sched\.alu\.registers\.regs\[6\]\[3\]
*1079 cpu\.dec\.sched\.alu\.registers\.regs\[6\]\[4\]
*1080 cpu\.dec\.sched\.alu\.registers\.regs\[6\]\[5\]
*1081 cpu\.dec\.sched\.alu\.registers\.regs\[6\]\[6\]
*1082 cpu\.dec\.sched\.alu\.registers\.regs\[6\]\[7\]
*1083 cpu\.dec\.sched\.alu\.registers\.regs\[7\]\[0\]
*1084 cpu\.dec\.sched\.alu\.registers\.regs\[7\]\[1\]
*1085 cpu\.dec\.sched\.alu\.registers\.regs\[7\]\[2\]
*1086 cpu\.dec\.sched\.alu\.registers\.regs\[7\]\[3\]
*1087 cpu\.dec\.sched\.alu\.registers\.regs\[7\]\[4\]
*1088 cpu\.dec\.sched\.alu\.registers\.regs\[7\]\[5\]
*1089 cpu\.dec\.sched\.alu\.registers\.regs\[7\]\[6\]
*1090 cpu\.dec\.sched\.alu\.registers\.regs\[7\]\[7\]
*1091 cpu\.dec\.sched\.alu\.rotate
*1092 cpu\.dec\.sched\.command_active
*1093 cpu\.dec\.sched\.imm16_available
*1094 cpu\.dec\.sched\.stage\[0\]
*1095 cpu\.dec\.sched\.tx_counter\[0\]
*1096 cpu\.dec\.sched\.tx_counter\[1\]
*1097 cpu\.dec\.sched\.tx_counter\[2\]
*1098 cpu\.dec\.sched\.tx_counter\[3\]
*1099 cpu\.dec\.stage
*1100 cpu\.dec\.z
*1101 cpu\.fifo\.entries\[1\]\[0\]
*1102 cpu\.fifo\.entries\[1\]\[1\]
*1103 cpu\.fifo\.entries\[2\]\[0\]
*1104 cpu\.fifo\.entries\[2\]\[1\]
*1105 cpu\.fifo\.entries\[3\]\[0\]
*1106 cpu\.fifo\.entries\[3\]\[1\]
*1107 cpu\.fifo\.entries\[4\]\[0\]
*1108 cpu\.fifo\.entries\[4\]\[1\]
*1109 cpu\.fifo\.num_entries\[0\]
*1110 cpu\.fifo\.num_entries\[1\]
*1111 cpu\.fifo\.num_entries\[2\]
*1112 cpu\.pref\.carry
*1113 cpu\.pref\.fifo\.last_entry\[0\]
*1114 cpu\.pref\.fifo\.last_entry\[10\]
*1115 cpu\.pref\.fifo\.last_entry\[11\]
*1116 cpu\.pref\.fifo\.last_entry\[12\]
*1117 cpu\.pref\.fifo\.last_entry\[13\]
*1118 cpu\.pref\.fifo\.last_entry\[14\]
*1119 cpu\.pref\.fifo\.last_entry\[15\]
*1120 cpu\.pref\.fifo\.last_entry\[1\]
*1121 cpu\.pref\.fifo\.last_entry\[2\]
*1122 cpu\.pref\.fifo\.last_entry\[3\]
*1123 cpu\.pref\.fifo\.last_entry\[4\]
*1124 cpu\.pref\.fifo\.last_entry\[5\]
*1125 cpu\.pref\.fifo\.last_entry\[6\]
*1126 cpu\.pref\.fifo\.last_entry\[7\]
*1127 cpu\.pref\.fifo\.last_entry\[8\]
*1128 cpu\.pref\.fifo\.last_entry\[9\]
*1129 cpu\.pref\.fifo\.last_valid
*1130 cpu\.pref\.fifo\.new_entry\[0\]
*1131 cpu\.pref\.fifo\.new_entry\[10\]
*1132 cpu\.pref\.fifo\.new_entry\[11\]
*1133 cpu\.pref\.fifo\.new_entry\[12\]
*1134 cpu\.pref\.fifo\.new_entry\[13\]
*1135 cpu\.pref\.fifo\.new_entry\[14\]
*1136 cpu\.pref\.fifo\.new_entry\[15\]
*1137 cpu\.pref\.fifo\.new_entry\[1\]
*1138 cpu\.pref\.fifo\.new_entry\[2\]
*1139 cpu\.pref\.fifo\.new_entry\[3\]
*1140 cpu\.pref\.fifo\.new_entry\[4\]
*1141 cpu\.pref\.fifo\.new_entry\[5\]
*1142 cpu\.pref\.fifo\.new_entry\[6\]
*1143 cpu\.pref\.fifo\.new_entry\[7\]
*1144 cpu\.pref\.fifo\.new_entry\[8\]
*1145 cpu\.pref\.fifo\.new_entry\[9\]
*1146 cpu\.pref\.fifo\.sr_entries\[0\]\[0\]
*1147 cpu\.pref\.fifo\.sr_entries\[0\]\[10\]
*1148 cpu\.pref\.fifo\.sr_entries\[0\]\[11\]
*1149 cpu\.pref\.fifo\.sr_entries\[0\]\[12\]
*1150 cpu\.pref\.fifo\.sr_entries\[0\]\[13\]
*1151 cpu\.pref\.fifo\.sr_entries\[0\]\[14\]
*1152 cpu\.pref\.fifo\.sr_entries\[0\]\[15\]
*1153 cpu\.pref\.fifo\.sr_entries\[0\]\[1\]
*1154 cpu\.pref\.fifo\.sr_entries\[0\]\[2\]
*1155 cpu\.pref\.fifo\.sr_entries\[0\]\[3\]
*1156 cpu\.pref\.fifo\.sr_entries\[0\]\[4\]
*1157 cpu\.pref\.fifo\.sr_entries\[0\]\[5\]
*1158 cpu\.pref\.fifo\.sr_entries\[0\]\[6\]
*1159 cpu\.pref\.fifo\.sr_entries\[0\]\[7\]
*1160 cpu\.pref\.fifo\.sr_entries\[0\]\[8\]
*1161 cpu\.pref\.fifo\.sr_entries\[0\]\[9\]
*1162 cpu\.pref\.fifo\.valid\[0\]
*1163 cpu\.pref\.num_flushed\[0\]
*1164 cpu\.pref\.num_flushed\[1\]
*1165 cpu\.pref\.num_prefetched\[0\]
*1166 cpu\.pref\.num_prefetched\[1\]
*1167 cpu\.pref\.pc\[0\]
*1168 cpu\.pref\.pc\[10\]
*1169 cpu\.pref\.pc\[11\]
*1170 cpu\.pref\.pc\[12\]
*1171 cpu\.pref\.pc\[13\]
*1172 cpu\.pref\.pc\[14\]
*1173 cpu\.pref\.pc\[15\]
*1174 cpu\.pref\.pc\[1\]
*1175 cpu\.pref\.pc\[2\]
*1176 cpu\.pref\.pc\[3\]
*1177 cpu\.pref\.pc\[4\]
*1178 cpu\.pref\.pc\[5\]
*1179 cpu\.pref\.pc\[6\]
*1180 cpu\.pref\.pc\[7\]
*1181 cpu\.pref\.pc\[8\]
*1182 cpu\.pref\.pc\[9\]
*1183 cpu\.pref\.sreg_full
*1184 cpu\.pref\.sum\[2\]
*1185 cpu\.sc_tx
*1186 net1
*1187 net100
*1188 net101
*1189 net102
*1190 net103
*1191 net104
*1192 net105
*1193 net106
*1194 net107
*1195 net108
*1196 net109
*1197 net110
*1198 net111
*1199 net112
*1200 net113
*1201 net114
*1202 net115
*1203 net116
*1204 net117
*1205 net118
*1206 net119
*1207 net120
*1208 net121
*1209 net122
*1210 net123
*1211 net124
*1212 net125
*1213 net126
*1214 net127
*1215 net128
*1216 net129
*1217 net130
*1218 net131
*1219 net132
*1220 net133
*1221 net134
*1222 net135
*1223 net136
*1224 net137
*1225 net138
*1226 net139
*1227 net140
*1228 net141
*1229 net142
*1230 net143
*1231 net144
*1232 net145
*1233 net146
*1234 net147
*1235 net148
*1236 net149
*1237 net150
*1238 net151
*1239 net152
*1240 net153
*1241 net154
*1242 net155
*1243 net156
*1244 net157
*1245 net158
*1246 net159
*1247 net160
*1248 net161
*1249 net162
*1250 net163
*1251 net164
*1252 net165
*1253 net166
*1254 net167
*1255 net168
*1256 net169
*1257 net170
*1258 net171
*1259 net172
*1260 net173
*1261 net174
*1262 net175
*1263 net176
*1264 net177
*1265 net178
*1266 net179
*1267 net180
*1268 net181
*1269 net182
*1270 net183
*1271 net184
*1272 net185
*1273 net186
*1274 net187
*1275 net188
*1276 net189
*1277 net190
*1278 net191
*1279 net192
*1280 net193
*1281 net194
*1282 net195
*1283 net196
*1284 net197
*1285 net198
*1286 net199
*1287 net2
*1288 net200
*1289 net201
*1290 net202
*1291 net203
*1292 net204
*1293 net205
*1294 net206
*1295 net207
*1296 net208
*1297 net209
*1298 net210
*1299 net211
*1300 net212
*1301 net213
*1302 net214
*1303 net215
*1304 net216
*1305 net217
*1306 net218
*1307 net219
*1308 net220
*1309 net221
*1310 net222
*1311 net223
*1312 net24
*1313 net25
*1314 net26
*1315 net27
*1316 net28
*1317 net29
*1318 net3
*1319 net30
*1320 net31
*1321 net32
*1322 net33
*1323 net34
*1324 net35
*1325 net36
*1326 net37
*1327 net38
*1328 net39
*1329 net40
*1330 net41
*1331 net42
*1332 net43
*1333 net44
*1334 net45
*1335 net46
*1336 net47
*1337 net48
*1338 net49
*1339 net50
*1340 net51
*1341 net52
*1342 net53
*1343 net54
*1344 net55
*1345 net56
*1346 net57
*1347 net58
*1348 net59
*1349 net60
*1350 net61
*1351 net62
*1352 net63
*1353 net64
*1354 net65
*1355 net66
*1356 net67
*1357 net68
*1358 net69
*1359 net70
*1360 net71
*1361 net72
*1362 net73
*1363 net74
*1364 net75
*1365 net76
*1366 net77
*1367 net78
*1368 net79
*1369 net80
*1370 net81
*1371 net82
*1372 net83
*1373 net84
*1374 net85
*1375 net86
*1376 net87
*1377 net88
*1378 net89
*1379 net90
*1380 net91
*1381 net92
*1382 net93
*1383 net94
*1384 net95
*1385 net96
*1386 net97
*1387 net98
*1388 net99
*1389 FILLER_0_0_15
*1390 FILLER_0_0_19
*1391 FILLER_0_0_194
*1392 FILLER_0_0_233
*1393 FILLER_0_0_251
*1394 FILLER_0_0_262
*1395 FILLER_0_0_29
*1396 FILLER_0_0_3
*1397 FILLER_0_0_33
*1398 FILLER_0_0_333
*1399 FILLER_0_0_50
*1400 FILLER_0_0_93
*1401 FILLER_0_10_102
*1402 FILLER_0_10_114
*1403 FILLER_0_10_124
*1404 FILLER_0_10_128
*1405 FILLER_0_10_137
*1406 FILLER_0_10_151
*1407 FILLER_0_10_183
*1408 FILLER_0_10_238
*1409 FILLER_0_10_249
*1410 FILLER_0_10_253
*1411 FILLER_0_10_276
*1412 FILLER_0_10_307
*1413 FILLER_0_10_321
*1414 FILLER_0_10_334
*1415 FILLER_0_10_40
*1416 FILLER_0_10_88
*1417 FILLER_0_10_9
*1418 FILLER_0_11_103
*1419 FILLER_0_11_111
*1420 FILLER_0_11_126
*1421 FILLER_0_11_130
*1422 FILLER_0_11_141
*1423 FILLER_0_11_149
*1424 FILLER_0_11_165
*1425 FILLER_0_11_169
*1426 FILLER_0_11_183
*1427 FILLER_0_11_189
*1428 FILLER_0_11_20
*1429 FILLER_0_11_225
*1430 FILLER_0_11_263
*1431 FILLER_0_11_275
*1432 FILLER_0_11_279
*1433 FILLER_0_11_284
*1434 FILLER_0_11_294
*1435 FILLER_0_11_329
*1436 FILLER_0_11_38
*1437 FILLER_0_11_55
*1438 FILLER_0_11_57
*1439 FILLER_0_11_83
*1440 FILLER_0_11_91
*1441 FILLER_0_12_145
*1442 FILLER_0_12_153
*1443 FILLER_0_12_191
*1444 FILLER_0_12_213
*1445 FILLER_0_12_239
*1446 FILLER_0_12_251
*1447 FILLER_0_12_278
*1448 FILLER_0_12_298
*1449 FILLER_0_12_317
*1450 FILLER_0_12_334
*1451 FILLER_0_12_45
*1452 FILLER_0_12_49
*1453 FILLER_0_12_61
*1454 FILLER_0_12_88
*1455 FILLER_0_12_99
*1456 FILLER_0_13_108
*1457 FILLER_0_13_122
*1458 FILLER_0_13_128
*1459 FILLER_0_13_143
*1460 FILLER_0_13_163
*1461 FILLER_0_13_167
*1462 FILLER_0_13_169
*1463 FILLER_0_13_182
*1464 FILLER_0_13_201
*1465 FILLER_0_13_207
*1466 FILLER_0_13_253
*1467 FILLER_0_13_284
*1468 FILLER_0_13_295
*1469 FILLER_0_13_332
*1470 FILLER_0_13_82
*1471 FILLER_0_14_102
*1472 FILLER_0_14_144
*1473 FILLER_0_14_156
*1474 FILLER_0_14_163
*1475 FILLER_0_14_195
*1476 FILLER_0_14_197
*1477 FILLER_0_14_211
*1478 FILLER_0_14_226
*1479 FILLER_0_14_236
*1480 FILLER_0_14_247
*1481 FILLER_0_14_251
*1482 FILLER_0_14_262
*1483 FILLER_0_14_29
*1484 FILLER_0_14_298
*1485 FILLER_0_14_333
*1486 FILLER_0_14_57
*1487 FILLER_0_14_83
*1488 FILLER_0_14_85
*1489 FILLER_0_15_108
*1490 FILLER_0_15_113
*1491 FILLER_0_15_124
*1492 FILLER_0_15_132
*1493 FILLER_0_15_144
*1494 FILLER_0_15_148
*1495 FILLER_0_15_156
*1496 FILLER_0_15_172
*1497 FILLER_0_15_186
*1498 FILLER_0_15_198
*1499 FILLER_0_15_206
*1500 FILLER_0_15_220
*1501 FILLER_0_15_241
*1502 FILLER_0_15_261
*1503 FILLER_0_15_279
*1504 FILLER_0_15_3
*1505 FILLER_0_15_37
*1506 FILLER_0_15_49
*1507 FILLER_0_15_73
*1508 FILLER_0_15_87
*1509 FILLER_0_16_101
*1510 FILLER_0_16_109
*1511 FILLER_0_16_141
*1512 FILLER_0_16_160
*1513 FILLER_0_16_172
*1514 FILLER_0_16_186
*1515 FILLER_0_16_222
*1516 FILLER_0_16_228
*1517 FILLER_0_16_238
*1518 FILLER_0_16_250
*1519 FILLER_0_16_256
*1520 FILLER_0_16_29
*1521 FILLER_0_16_3
*1522 FILLER_0_16_306
*1523 FILLER_0_16_334
*1524 FILLER_0_16_49
*1525 FILLER_0_16_76
*1526 FILLER_0_16_83
*1527 FILLER_0_16_85
*1528 FILLER_0_16_89
*1529 FILLER_0_16_97
*1530 FILLER_0_17_107
*1531 FILLER_0_17_111
*1532 FILLER_0_17_113
*1533 FILLER_0_17_123
*1534 FILLER_0_17_152
*1535 FILLER_0_17_173
*1536 FILLER_0_17_186
*1537 FILLER_0_17_192
*1538 FILLER_0_17_206
*1539 FILLER_0_17_257
*1540 FILLER_0_17_287
*1541 FILLER_0_17_297
*1542 FILLER_0_17_3
*1543 FILLER_0_17_34
*1544 FILLER_0_17_41
*1545 FILLER_0_17_45
*1546 FILLER_0_17_49
*1547 FILLER_0_17_57
*1548 FILLER_0_17_75
*1549 FILLER_0_17_92
*1550 FILLER_0_18_102
*1551 FILLER_0_18_11
*1552 FILLER_0_18_139
*1553 FILLER_0_18_141
*1554 FILLER_0_18_145
*1555 FILLER_0_18_162
*1556 FILLER_0_18_18
*1557 FILLER_0_18_202
*1558 FILLER_0_18_242
*1559 FILLER_0_18_26
*1560 FILLER_0_18_29
*1561 FILLER_0_18_3
*1562 FILLER_0_18_334
*1563 FILLER_0_18_41
*1564 FILLER_0_18_65
*1565 FILLER_0_18_71
*1566 FILLER_0_18_81
*1567 FILLER_0_18_91
*1568 FILLER_0_19_137
*1569 FILLER_0_19_146
*1570 FILLER_0_19_154
*1571 FILLER_0_19_16
*1572 FILLER_0_19_165
*1573 FILLER_0_19_199
*1574 FILLER_0_19_218
*1575 FILLER_0_19_27
*1576 FILLER_0_19_279
*1577 FILLER_0_19_281
*1578 FILLER_0_19_3
*1579 FILLER_0_19_318
*1580 FILLER_0_19_47
*1581 FILLER_0_19_54
*1582 FILLER_0_19_57
*1583 FILLER_0_19_79
*1584 FILLER_0_19_93
*1585 FILLER_0_1_139
*1586 FILLER_0_1_15
*1587 FILLER_0_1_167
*1588 FILLER_0_1_172
*1589 FILLER_0_1_206
*1590 FILLER_0_1_249
*1591 FILLER_0_1_278
*1592 FILLER_0_1_3
*1593 FILLER_0_1_317
*1594 FILLER_0_1_35
*1595 FILLER_0_1_39
*1596 FILLER_0_1_73
*1597 FILLER_0_1_92
*1598 FILLER_0_20_109
*1599 FILLER_0_20_137
*1600 FILLER_0_20_144
*1601 FILLER_0_20_154
*1602 FILLER_0_20_178
*1603 FILLER_0_20_187
*1604 FILLER_0_20_205
*1605 FILLER_0_20_222
*1606 FILLER_0_20_230
*1607 FILLER_0_20_250
*1608 FILLER_0_20_26
*1609 FILLER_0_20_262
*1610 FILLER_0_20_282
*1611 FILLER_0_20_29
*1612 FILLER_0_20_3
*1613 FILLER_0_20_33
*1614 FILLER_0_20_333
*1615 FILLER_0_20_51
*1616 FILLER_0_20_68
*1617 FILLER_0_20_76
*1618 FILLER_0_20_82
*1619 FILLER_0_20_98
*1620 FILLER_0_21_105
*1621 FILLER_0_21_109
*1622 FILLER_0_21_131
*1623 FILLER_0_21_145
*1624 FILLER_0_21_156
*1625 FILLER_0_21_162
*1626 FILLER_0_21_169
*1627 FILLER_0_21_179
*1628 FILLER_0_21_193
*1629 FILLER_0_21_21
*1630 FILLER_0_21_220
*1631 FILLER_0_21_225
*1632 FILLER_0_21_275
*1633 FILLER_0_21_279
*1634 FILLER_0_21_281
*1635 FILLER_0_21_297
*1636 FILLER_0_21_3
*1637 FILLER_0_21_33
*1638 FILLER_0_21_37
*1639 FILLER_0_21_47
*1640 FILLER_0_21_63
*1641 FILLER_0_21_69
*1642 FILLER_0_21_75
*1643 FILLER_0_21_82
*1644 FILLER_0_21_9
*1645 FILLER_0_22_106
*1646 FILLER_0_22_118
*1647 FILLER_0_22_128
*1648 FILLER_0_22_148
*1649 FILLER_0_22_15
*1650 FILLER_0_22_171
*1651 FILLER_0_22_181
*1652 FILLER_0_22_190
*1653 FILLER_0_22_214
*1654 FILLER_0_22_256
*1655 FILLER_0_22_274
*1656 FILLER_0_22_29
*1657 FILLER_0_22_3
*1658 FILLER_0_22_333
*1659 FILLER_0_22_52
*1660 FILLER_0_22_57
*1661 FILLER_0_22_61
*1662 FILLER_0_22_65
*1663 FILLER_0_22_73
*1664 FILLER_0_22_83
*1665 FILLER_0_23_111
*1666 FILLER_0_23_135
*1667 FILLER_0_23_143
*1668 FILLER_0_23_169
*1669 FILLER_0_23_173
*1670 FILLER_0_23_179
*1671 FILLER_0_23_185
*1672 FILLER_0_23_189
*1673 FILLER_0_23_20
*1674 FILLER_0_23_206
*1675 FILLER_0_23_215
*1676 FILLER_0_23_223
*1677 FILLER_0_23_225
*1678 FILLER_0_23_229
*1679 FILLER_0_23_239
*1680 FILLER_0_23_26
*1681 FILLER_0_23_270
*1682 FILLER_0_23_3
*1683 FILLER_0_23_36
*1684 FILLER_0_23_40
*1685 FILLER_0_23_66
*1686 FILLER_0_23_90
*1687 FILLER_0_24_104
*1688 FILLER_0_24_116
*1689 FILLER_0_24_124
*1690 FILLER_0_24_129
*1691 FILLER_0_24_13
*1692 FILLER_0_24_141
*1693 FILLER_0_24_156
*1694 FILLER_0_24_164
*1695 FILLER_0_24_17
*1696 FILLER_0_24_177
*1697 FILLER_0_24_192
*1698 FILLER_0_24_203
*1699 FILLER_0_24_222
*1700 FILLER_0_24_24
*1701 FILLER_0_24_245
*1702 FILLER_0_24_269
*1703 FILLER_0_24_287
*1704 FILLER_0_24_29
*1705 FILLER_0_24_3
*1706 FILLER_0_24_326
*1707 FILLER_0_24_43
*1708 FILLER_0_24_49
*1709 FILLER_0_24_64
*1710 FILLER_0_24_79
*1711 FILLER_0_24_83
*1712 FILLER_0_25_110
*1713 FILLER_0_25_120