*SPEF "ieee 1481-1999"
*DESIGN "tt_um_toivoh_basilisc_2816"
*DATE "05:30:14 Wednesday May 15, 2024"
*VENDOR "The OpenROAD Project"
*PROGRAM "OpenROAD"
*VERSION "da0053d7b0014ab9c87ea148875ff6c2a0f9b658"
*DESIGN_FLOW "NAME_SCOPE LOCAL" "PIN_CAP NONE"
*DIVIDER /
*DELIMITER :
*BUS_DELIMITER []
*T_UNIT 1 NS
*C_UNIT 1 PF
*R_UNIT 1 OHM
*L_UNIT 1 HENRY

*NAME_MAP
*3 clk
*4 ena
*5 rst_n
*6 ui_in[0]
*7 ui_in[1]
*8 ui_in[2]
*9 ui_in[3]
*10 ui_in[4]
*11 ui_in[5]
*12 ui_in[6]
*13 ui_in[7]
*14 uio_in[0]
*15 uio_in[1]
*16 uio_in[2]
*17 uio_in[3]
*18 uio_in[4]
*19 uio_in[5]
*20 uio_in[6]
*21 uio_in[7]
*22 net7
*23 net8
*24 net9
*25 net10
*26 net11
*27 net12
*28 net13
*29 net14
*30 net15
*31 net16
*32 net17
*33 net18
*34 net19
*35 net20
*36 net21
*37 net22
*38 uo_out[0]
*39 uo_out[1]
*40 uo_out[2]
*41 net23
*42 net24
*43 net25
*44 net26
*45 net27
*46 _0000_
*47 _0001_
*48 _0002_
*49 _0003_
*50 _0004_
*51 _0005_
*52 _0006_
*53 _0007_
*54 _0008_
*55 _0009_
*56 _0010_
*57 _0011_
*58 _0012_
*59 _0013_
*60 _0014_
*61 _0015_
*62 _0016_
*63 _0017_
*64 _0018_
*65 _0019_
*66 _0020_
*67 _0021_
*68 _0022_
*69 _0023_
*70 _0024_
*71 _0025_
*72 _0026_
*73 _0027_
*74 _0028_
*75 _0029_
*76 _0030_
*77 _0031_
*78 _0032_
*79 _0033_
*80 _0034_
*81 _0035_
*82 _0036_
*83 _0037_
*84 _0038_
*85 _0039_
*86 _0040_
*87 _0041_
*88 _0042_
*89 _0043_
*90 _0044_
*91 _0045_
*92 _0046_
*93 _0047_
*94 _0048_
*95 _0049_
*96 _0050_
*97 _0051_
*98 _0052_
*99 _0053_
*100 _0054_
*101 _0055_
*102 _0056_
*103 _0057_
*104 _0058_
*105 _0059_
*106 _0060_
*107 _0061_
*108 _0062_
*109 _0063_
*110 _0064_
*111 _0065_
*112 _0066_
*113 _0067_
*114 _0068_
*115 _0069_
*116 _0070_
*117 _0071_
*118 _0072_
*119 _0073_
*120 _0074_
*121 _0075_
*122 _0076_
*123 _0077_
*124 _0078_
*125 _0079_
*126 _0080_
*127 _0081_
*128 _0082_
*129 _0083_
*130 _0084_
*131 _0085_
*132 _0086_
*133 _0087_
*134 _0088_
*135 _0089_
*136 _0090_
*137 _0091_
*138 _0092_
*139 _0093_
*140 _0094_
*141 _0095_
*142 _0096_
*143 _0097_
*144 _0098_
*145 _0099_
*146 _0100_
*147 _0101_
*148 _0102_
*149 _0103_
*150 _0104_
*151 _0105_
*152 _0106_
*153 _0107_
*154 _0108_
*155 _0109_
*156 _0110_
*157 _0111_
*158 _0112_
*159 _0113_
*160 _0114_
*161 _0115_
*162 _0116_
*163 _0117_
*164 _0118_
*165 _0119_
*166 _0120_
*167 _0121_
*168 _0122_
*169 _0123_
*170 _0124_
*171 _0125_
*172 _0126_
*173 _0127_
*174 _0128_
*175 _0129_
*176 _0130_
*177 _0131_
*178 _0132_
*179 _0133_
*180 _0134_
*181 _0135_
*182 _0136_
*183 _0137_
*184 _0138_
*185 _0139_
*186 _0140_
*187 _0141_
*188 _0142_
*189 _0143_
*190 _0144_
*191 _0145_
*192 _0146_
*193 _0147_
*194 _0148_
*195 _0149_
*196 _0150_
*197 _0151_
*198 _0152_
*199 _0153_
*200 _0154_
*201 _0155_
*202 _0156_
*203 _0157_
*204 _0158_
*205 _0159_
*206 _0160_
*207 _0161_
*208 _0162_
*209 _0163_
*210 _0164_
*211 _0165_
*212 _0166_
*213 _0167_
*214 _0168_
*215 _0169_
*216 _0170_
*217 _0171_
*218 _0172_
*219 _0173_
*220 _0174_
*221 _0175_
*222 _0176_
*223 _0177_
*224 _0178_
*225 _0179_
*226 _0180_
*227 _0181_
*228 _0182_
*229 _0183_
*230 _0184_
*231 _0185_
*232 _0186_
*233 _0187_
*234 _0188_
*235 _0189_
*236 _0190_
*237 _0191_
*238 _0192_
*239 _0193_
*240 _0194_
*241 _0195_
*242 _0196_
*243 _0197_
*244 _0198_
*245 _0199_
*246 _0200_
*247 _0201_
*248 _0202_
*249 _0203_
*250 _0204_
*251 _0205_
*252 _0206_
*253 _0207_
*254 _0208_
*255 _0209_
*256 _0210_
*257 _0211_
*258 _0212_
*259 _0213_
*260 _0214_
*261 _0215_
*262 _0216_
*263 _0217_
*264 _0218_
*265 _0219_
*266 _0220_
*267 _0221_
*268 _0222_
*269 _0223_
*270 _0224_
*271 _0225_
*272 _0226_
*273 _0227_
*274 _0228_
*275 _0229_
*276 _0230_
*277 _0231_
*278 _0232_
*279 _0233_
*280 _0234_
*281 _0235_
*282 _0236_
*283 _0237_
*284 _0238_
*285 _0239_
*286 _0240_
*287 _0241_
*288 _0242_
*289 _0243_
*290 _0244_
*291 _0245_
*292 _0246_
*293 _0247_
*294 _0248_
*295 _0249_
*296 _0250_
*297 _0251_
*298 _0252_
*299 _0253_
*300 _0254_
*301 _0255_
*302 _0256_
*303 _0257_
*304 _0258_
*305 _0259_
*306 _0260_
*307 _0261_
*308 _0262_
*309 _0263_
*310 _0264_
*311 _0265_
*312 _0266_
*313 _0267_
*314 _0268_
*315 _0269_
*316 _0270_
*317 _0271_
*318 _0272_
*319 _0273_
*320 _0274_
*321 _0275_
*322 _0276_
*323 _0277_
*324 _0278_
*325 _0279_
*326 _0280_
*327 _0281_
*328 _0282_
*329 _0283_
*330 _0284_
*331 _0285_
*332 _0286_
*333 _0287_
*334 _0288_
*335 _0289_
*336 _0290_
*337 _0291_
*338 _0292_
*339 _0293_
*340 _0294_
*341 _0295_
*342 _0296_
*343 _0297_
*344 _0298_
*345 _0299_
*346 _0300_
*347 _0301_
*348 _0302_
*349 _0303_
*350 _0304_
*351 _0305_
*352 _0306_
*353 _0307_
*354 _0308_
*355 _0309_
*356 _0310_
*357 _0311_
*358 _0312_
*359 _0313_
*360 _0314_
*361 _0315_
*362 _0316_
*363 _0317_
*364 _0318_
*365 _0319_
*366 _0320_
*367 _0321_
*368 _0322_
*369 _0323_
*370 _0324_
*371 _0325_
*372 _0326_
*373 _0327_
*374 _0328_
*375 _0329_
*376 _0330_
*377 _0331_
*378 _0332_
*379 _0333_
*380 _0334_
*381 _0335_
*382 _0336_
*383 _0337_
*384 _0338_
*385 _0339_
*386 _0340_
*387 _0341_
*388 _0342_
*389 _0343_
*390 _0344_
*391 _0345_
*392 _0346_
*393 _0347_
*394 _0348_
*395 _0349_
*396 _0350_
*397 _0351_
*398 _0352_
*399 _0353_
*400 _0354_
*401 _0355_
*402 _0356_
*403 _0357_
*404 _0358_
*405 _0359_
*406 _0360_
*407 _0361_
*408 _0362_
*409 _0363_
*410 _0364_
*411 _0365_
*412 _0366_
*413 _0367_
*414 _0368_
*415 _0369_
*416 _0370_
*417 _0371_
*418 _0372_
*419 _0373_
*420 _0374_
*421 _0375_
*422 _0376_
*423 _0377_
*424 _0378_
*425 _0379_
*426 _0380_
*427 _0381_
*428 _0382_
*429 _0383_
*430 _0384_
*431 _0385_
*432 _0386_
*433 _0387_
*434 _0388_
*435 _0389_
*436 _0390_
*437 _0391_
*438 _0392_
*439 _0393_
*440 _0394_
*441 _0395_
*442 _0396_
*443 _0397_
*444 _0398_
*445 _0399_
*446 _0400_
*447 _0401_
*448 _0402_
*449 _0403_
*450 _0404_
*451 _0405_
*452 _0406_
*453 _0407_
*454 _0408_
*455 _0409_
*456 _0410_
*457 _0411_
*458 _0412_
*459 _0413_
*460 _0414_
*461 _0415_
*462 _0416_
*463 _0417_
*464 _0418_
*465 _0419_
*466 _0420_
*467 _0421_
*468 _0422_
*469 _0423_
*470 _0424_
*471 _0425_
*472 _0426_
*473 _0427_
*474 _0428_
*475 _0429_
*476 _0430_
*477 _0431_
*478 _0432_
*479 _0433_
*480 _0434_
*481 _0435_
*482 _0436_
*483 _0437_
*484 _0438_
*485 _0439_
*486 _0440_
*487 _0441_
*488 _0442_
*489 _0443_
*490 _0444_
*491 _0445_
*492 _0446_
*493 _0447_
*494 _0448_
*495 _0449_
*496 _0450_
*497 _0451_
*498 _0452_
*499 _0453_
*500 _0454_
*501 _0455_
*502 _0456_
*503 _0457_
*504 _0458_
*505 _0459_
*506 _0460_
*507 _0461_
*508 _0462_
*509 _0463_
*510 _0464_
*511 _0465_
*512 _0466_
*513 _0467_
*514 _0468_
*515 _0469_
*516 _0470_
*517 _0471_
*518 _0472_
*519 _0473_
*520 _0474_
*521 _0475_
*522 _0476_
*523 _0477_
*524 _0478_
*525 _0479_
*526 _0480_
*527 _0481_
*528 _0482_
*529 _0483_
*530 _0484_
*531 _0485_
*532 _0486_
*533 _0487_
*534 _0488_
*535 _0489_
*536 _0490_
*537 _0491_
*538 _0492_
*539 _0493_
*540 _0494_
*541 _0495_
*542 _0496_
*543 _0497_
*544 _0498_
*545 _0499_
*546 _0500_
*547 _0501_
*548 _0502_
*549 _0503_
*550 _0504_
*551 _0505_
*552 _0506_
*553 _0507_
*554 _0508_
*555 _0509_
*556 _0510_
*557 _0511_
*558 _0512_
*559 _0513_
*560 _0514_
*561 _0515_
*562 _0516_
*563 _0517_
*564 _0518_
*565 _0519_
*566 _0520_
*567 _0521_
*568 _0522_
*569 _0523_
*570 _0524_
*571 _0525_
*572 _0526_
*573 _0527_
*574 _0528_
*575 _0529_
*576 _0530_
*577 _0531_
*578 _0532_
*579 _0533_
*580 _0534_
*581 _0535_
*582 _0536_
*583 _0537_
*584 _0538_
*585 _0539_
*586 _0540_
*587 _0541_
*588 _0542_
*589 _0543_
*590 _0544_
*591 _0545_
*592 _0546_
*593 _0547_
*594 _0548_
*595 _0549_
*596 _0550_
*597 _0551_
*598 _0552_
*599 _0553_
*600 _0554_
*601 _0555_
*602 _0556_
*603 _0557_
*604 _0558_
*605 _0559_
*606 _0560_
*607 _0561_
*608 _0562_
*609 _0563_
*610 _0564_
*611 _0565_
*612 _0566_
*613 _0567_
*614 _0568_
*615 _0569_
*616 _0570_
*617 _0571_
*618 _0572_
*619 _0573_
*620 _0574_
*621 _0575_
*622 _0576_
*623 _0577_
*624 _0578_
*625 _0579_
*626 _0580_
*627 _0581_
*628 _0582_
*629 _0583_
*630 _0584_
*631 _0585_
*632 _0586_
*633 _0587_
*634 _0588_
*635 _0589_
*636 _0590_
*637 _0591_
*638 _0592_
*639 _0593_
*640 _0594_
*641 _0595_
*642 _0596_
*643 _0597_
*644 _0598_
*645 _0599_
*646 _0600_
*647 _0601_
*648 _0602_
*649 _0603_
*650 _0604_
*651 _0605_
*652 _0606_
*653 _0607_
*654 _0608_
*655 _0609_
*656 _0610_
*657 _0611_
*658 _0612_
*659 _0613_
*660 _0614_
*661 _0615_
*662 _0616_
*663 _0617_
*664 _0618_
*665 _0619_
*666 _0620_
*667 _0621_
*668 _0622_
*669 _0623_
*670 _0624_
*671 _0625_
*672 _0626_
*673 _0627_
*674 _0628_
*675 _0629_
*676 _0630_
*677 _0631_
*678 _0632_
*679 _0633_
*680 _0634_
*681 _0635_
*682 _0636_
*683 _0637_
*684 _0638_
*685 _0639_
*686 _0640_
*687 _0641_
*688 _0642_
*689 _0643_
*690 _0644_
*691 _0645_
*692 _0646_
*693 _0647_
*694 _0648_
*695 _0649_
*696 _0650_
*697 _0651_
*698 _0652_
*699 _0653_
*700 _0654_
*701 _0655_
*702 _0656_
*703 _0657_
*704 _0658_
*705 _0659_
*706 _0660_
*707 _0661_
*708 _0662_
*709 _0663_
*710 _0664_
*711 _0665_
*712 _0666_
*713 _0667_
*714 _0668_
*715 _0669_
*716 _0670_
*717 _0671_
*718 _0672_
*719 _0673_
*720 _0674_
*721 _0675_
*722 _0676_
*723 _0677_
*724 _0678_
*725 _0679_
*726 _0680_
*727 _0681_
*728 _0682_
*729 _0683_
*730 _0684_
*731 _0685_
*732 _0686_
*733 _0687_
*734 _0688_
*735 _0689_
*736 _0690_
*737 _0691_
*738 _0692_
*739 _0693_
*740 _0694_
*741 _0695_
*742 _0696_
*743 _0697_
*744 _0698_
*745 _0699_
*746 _0700_
*747 _0701_
*748 _0702_
*749 _0703_
*750 _0704_
*751 _0705_
*752 _0706_
*753 _0707_
*754 _0708_
*755 _0709_
*756 _0710_
*757 _0711_
*758 _0712_
*759 _0713_
*760 _0714_
*761 _0715_
*762 _0716_
*763 _0717_
*764 _0718_
*765 _0719_
*766 _0720_
*767 _0721_
*768 _0722_
*769 _0723_
*770 _0724_
*771 _0725_
*772 _0726_
*773 _0727_
*774 _0728_
*775 _0729_
*776 _0730_
*777 _0731_
*778 _0732_
*779 _0733_
*780 _0734_
*781 _0735_
*782 _0736_
*783 _0737_
*784 _0738_
*785 _0739_
*786 _0740_
*787 _0741_
*788 _0742_
*789 _0743_
*790 _0744_
*791 _0745_
*792 _0746_
*793 _0747_
*794 _0748_
*795 _0749_
*796 _0750_
*797 _0751_
*798 _0752_
*799 _0753_
*800 _0754_
*801 _0755_
*802 _0756_
*803 _0757_
*804 _0758_
*805 _0759_
*806 _0760_
*807 _0761_
*808 _0762_
*809 _0763_
*810 _0764_
*811 _0765_
*812 _0766_
*813 _0767_
*814 _0768_
*815 _0769_
*816 _0770_
*817 _0771_
*818 _0772_
*819 _0773_
*820 _0774_
*821 _0775_
*822 _0776_
*823 _0777_
*824 _0778_
*825 _0779_
*826 _0780_
*827 _0781_
*828 _0782_
*829 _0783_
*830 _0784_
*831 _0785_
*832 _0786_
*833 _0787_
*834 _0788_
*835 _0789_
*836 _0790_
*837 clknet_0_clk
*838 clknet_1_0__leaf_clk
*839 clknet_1_1__leaf_clk
*840 clknet_leaf_0_clk
*841 clknet_leaf_10_clk
*842 clknet_leaf_11_clk
*843 clknet_leaf_1_clk
*844 clknet_leaf_2_clk
*845 clknet_leaf_3_clk
*846 clknet_leaf_4_clk
*847 clknet_leaf_5_clk
*848 clknet_leaf_6_clk
*849 clknet_leaf_7_clk
*850 clknet_leaf_8_clk
*851 clknet_leaf_9_clk
*852 cpu\.add
*853 cpu\.comp_counter\[0\]
*854 cpu\.comp_counter\[1\]
*855 cpu\.comp_counter\[2\]
*856 cpu\.curr_sc_tx
*857 cpu\.dec\.aaa\[0\]
*858 cpu\.dec\.aaa\[1\]
*859 cpu\.dec\.aaa\[2\]
*860 cpu\.dec\.addr_reg2\[0\]
*861 cpu\.dec\.addr_reg2\[1\]
*862 cpu\.dec\.addr_reg2\[2\]
*863 cpu\.dec\.arg1_reg\[1\]
*864 cpu\.dec\.arg1_reg\[2\]
*865 cpu\.dec\.arg2_enc\[3\]
*866 cpu\.dec\.arg2_enc\[4\]
*867 cpu\.dec\.arg2_enc\[5\]
*868 cpu\.dec\.b8
*869 cpu\.dec\.d
*870 cpu\.dec\.e
*871 cpu\.dec\.imm_data_in\[0\]
*872 cpu\.dec\.imm_data_in\[1\]
*873 cpu\.dec\.inst_valid
*874 cpu\.dec\.m
*875 cpu\.dec\.prefetch_idle
*876 cpu\.dec\.rx_counter\[0\]
*877 cpu\.dec\.rx_counter\[1\]
*878 cpu\.dec\.rx_counter\[2\]
*879 cpu\.dec\.rx_counter\[3\]
*880 cpu\.dec\.rx_pins\[0\]
*881 cpu\.dec\.rx_pins\[1\]
*882 cpu\.dec\.sched\.active
*883 cpu\.dec\.sched\.alu\.arg2_01\[1\]
*884 cpu\.dec\.sched\.alu\.carry
*885 cpu\.dec\.sched\.alu\.flag_c
*886 cpu\.dec\.sched\.alu\.flag_s
*887 cpu\.dec\.sched\.alu\.flag_v
*888 cpu\.dec\.sched\.alu\.flag_z
*889 cpu\.dec\.sched\.alu\.next_carry
*890 cpu\.dec\.sched\.alu\.old_arg2_bit
*891 cpu\.dec\.sched\.alu\.registers\.regs\[0\]\[0\]
*892 cpu\.dec\.sched\.alu\.registers\.regs\[0\]\[1\]
*893 cpu\.dec\.sched\.alu\.registers\.regs\[0\]\[2\]
*894 cpu\.dec\.sched\.alu\.registers\.regs\[0\]\[3\]
*895 cpu\.dec\.sched\.alu\.registers\.regs\[0\]\[4\]
*896 cpu\.dec\.sched\.alu\.registers\.regs\[0\]\[5\]
*897 cpu\.dec\.sched\.alu\.registers\.regs\[0\]\[6\]
*898 cpu\.dec\.sched\.alu\.registers\.regs\[0\]\[7\]
*899 cpu\.dec\.sched\.alu\.registers\.regs\[1\]\[0\]
*900 cpu\.dec\.sched\.alu\.registers\.regs\[1\]\[1\]
*901 cpu\.dec\.sched\.alu\.registers\.regs\[1\]\[2\]
*902 cpu\.dec\.sched\.alu\.registers\.regs\[1\]\[3\]
*903 cpu\.dec\.sched\.alu\.registers\.regs\[1\]\[4\]
*904 cpu\.dec\.sched\.alu\.registers\.regs\[1\]\[5\]
*905 cpu\.dec\.sched\.alu\.registers\.regs\[1\]\[6\]
*906 cpu\.dec\.sched\.alu\.registers\.regs\[1\]\[7\]
*907 cpu\.dec\.sched\.alu\.registers\.regs\[2\]\[0\]
*908 cpu\.dec\.sched\.alu\.registers\.regs\[2\]\[1\]
*909 cpu\.dec\.sched\.alu\.registers\.regs\[2\]\[2\]
*910 cpu\.dec\.sched\.alu\.registers\.regs\[2\]\[3\]
*911 cpu\.dec\.sched\.alu\.registers\.regs\[2\]\[4\]
*912 cpu\.dec\.sched\.alu\.registers\.regs\[2\]\[5\]
*913 cpu\.dec\.sched\.alu\.registers\.regs\[2\]\[6\]
*914 cpu\.dec\.sched\.alu\.registers\.regs\[2\]\[7\]
*915 cpu\.dec\.sched\.alu\.registers\.regs\[3\]\[0\]
*916 cpu\.dec\.sched\.alu\.registers\.regs\[3\]\[1\]
*917 cpu\.dec\.sched\.alu\.registers\.regs\[3\]\[2\]
*918 cpu\.dec\.sched\.alu\.registers\.regs\[3\]\[3\]
*919 cpu\.dec\.sched\.alu\.registers\.regs\[3\]\[4\]
*920 cpu\.dec\.sched\.alu\.registers\.regs\[3\]\[5\]
*921 cpu\.dec\.sched\.alu\.registers\.regs\[3\]\[6\]
*922 cpu\.dec\.sched\.alu\.registers\.regs\[3\]\[7\]
*923 cpu\.dec\.sched\.alu\.registers\.regs\[4\]\[0\]
*924 cpu\.dec\.sched\.alu\.registers\.regs\[4\]\[1\]
*925 cpu\.dec\.sched\.alu\.registers\.regs\[4\]\[2\]
*926 cpu\.dec\.sched\.alu\.registers\.regs\[4\]\[3\]
*927 cpu\.dec\.sched\.alu\.registers\.regs\[4\]\[4\]
*928 cpu\.dec\.sched\.alu\.registers\.regs\[4\]\[5\]
*929 cpu\.dec\.sched\.alu\.registers\.regs\[4\]\[6\]
*930 cpu\.dec\.sched\.alu\.registers\.regs\[4\]\[7\]
*931 cpu\.dec\.sched\.alu\.registers\.regs\[5\]\[0\]
*932 cpu\.dec\.sched\.alu\.registers\.regs\[5\]\[1\]
*933 cpu\.dec\.sched\.alu\.registers\.regs\[5\]\[2\]
*934 cpu\.dec\.sched\.alu\.registers\.regs\[5\]\[3\]
*935 cpu\.dec\.sched\.alu\.registers\.regs\[5\]\[4\]
*936 cpu\.dec\.sched\.alu\.registers\.regs\[5\]\[5\]
*937 cpu\.dec\.sched\.alu\.registers\.regs\[5\]\[6\]
*938 cpu\.dec\.sched\.alu\.registers\.regs\[5\]\[7\]
*939 cpu\.dec\.sched\.alu\.registers\.regs\[6\]\[0\]
*940 cpu\.dec\.sched\.alu\.registers\.regs\[6\]\[1\]
*941 cpu\.dec\.sched\.alu\.registers\.regs\[6\]\[2\]
*942 cpu\.dec\.sched\.alu\.registers\.regs\[6\]\[3\]
*943 cpu\.dec\.sched\.alu\.registers\.regs\[6\]\[4\]
*944 cpu\.dec\.sched\.alu\.registers\.regs\[6\]\[5\]
*945 cpu\.dec\.sched\.alu\.registers\.regs\[6\]\[6\]
*946 cpu\.dec\.sched\.alu\.registers\.regs\[6\]\[7\]
*947 cpu\.dec\.sched\.alu\.registers\.regs\[7\]\[0\]
*948 cpu\.dec\.sched\.alu\.registers\.regs\[7\]\[1\]
*949 cpu\.dec\.sched\.alu\.registers\.regs\[7\]\[2\]
*950 cpu\.dec\.sched\.alu\.registers\.regs\[7\]\[3\]
*951 cpu\.dec\.sched\.alu\.registers\.regs\[7\]\[4\]
*952 cpu\.dec\.sched\.alu\.registers\.regs\[7\]\[5\]
*953 cpu\.dec\.sched\.alu\.registers\.regs\[7\]\[6\]
*954 cpu\.dec\.sched\.alu\.registers\.regs\[7\]\[7\]
*955 cpu\.dec\.sched\.command_active
*956 cpu\.dec\.sched\.stage
*957 cpu\.dec\.sched\.tx_counter\[0\]
*958 cpu\.dec\.sched\.tx_counter\[1\]
*959 cpu\.dec\.sched\.tx_counter\[2\]
*960 cpu\.dec\.sched\.tx_counter\[3\]
*961 cpu\.dec\.z
*962 cpu\.fifo\.entries\[1\]\[0\]
*963 cpu\.fifo\.entries\[1\]\[1\]
*964 cpu\.fifo\.entries\[2\]\[0\]
*965 cpu\.fifo\.entries\[2\]\[1\]
*966 cpu\.fifo\.entries\[3\]\[0\]
*967 cpu\.fifo\.entries\[3\]\[1\]
*968 cpu\.fifo\.entries\[4\]\[0\]
*969 cpu\.fifo\.entries\[4\]\[1\]
*970 cpu\.fifo\.entries\[5\]\[0\]
*971 cpu\.fifo\.entries\[5\]\[1\]
*972 cpu\.fifo\.entries\[6\]\[0\]
*973 cpu\.fifo\.entries\[6\]\[1\]
*974 cpu\.fifo\.entries\[7\]\[0\]
*975 cpu\.fifo\.entries\[7\]\[1\]
*976 cpu\.fifo\.num_entries\[0\]
*977 cpu\.fifo\.num_entries\[1\]
*978 cpu\.fifo\.num_entries\[2\]
*979 cpu\.pref\.carry
*980 cpu\.pref\.fifo\.last_entry\[0\]
*981 cpu\.pref\.fifo\.last_entry\[10\]
*982 cpu\.pref\.fifo\.last_entry\[11\]
*983 cpu\.pref\.fifo\.last_entry\[12\]
*984 cpu\.pref\.fifo\.last_entry\[13\]
*985 cpu\.pref\.fifo\.last_entry\[14\]
*986 cpu\.pref\.fifo\.last_entry\[15\]
*987 cpu\.pref\.fifo\.last_entry\[1\]
*988 cpu\.pref\.fifo\.last_entry\[2\]
*989 cpu\.pref\.fifo\.last_entry\[3\]
*990 cpu\.pref\.fifo\.last_entry\[4\]
*991 cpu\.pref\.fifo\.last_entry\[5\]
*992 cpu\.pref\.fifo\.last_entry\[6\]
*993 cpu\.pref\.fifo\.last_entry\[7\]
*994 cpu\.pref\.fifo\.last_entry\[8\]
*995 cpu\.pref\.fifo\.last_entry\[9\]
*996 cpu\.pref\.fifo\.last_valid
*997 cpu\.pref\.fifo\.new_entry\[0\]
*998 cpu\.pref\.fifo\.new_entry\[10\]
*999 cpu\.pref\.fifo\.new_entry\[11\]
*1000 cpu\.pref\.fifo\.new_entry\[12\]
*1001 cpu\.pref\.fifo\.new_entry\[13\]
*1002 cpu\.pref\.fifo\.new_entry\[14\]
*1003 cpu\.pref\.fifo\.new_entry\[15\]
*1004 cpu\.pref\.fifo\.new_entry\[1\]
*1005 cpu\.pref\.fifo\.new_entry\[2\]
*1006 cpu\.pref\.fifo\.new_entry\[3\]
*1007 cpu\.pref\.fifo\.new_entry\[4\]
*1008 cpu\.pref\.fifo\.new_entry\[5\]
*1009 cpu\.pref\.fifo\.new_entry\[6\]
*1010 cpu\.pref\.fifo\.new_entry\[7\]
*1011 cpu\.pref\.fifo\.new_entry\[8\]
*1012 cpu\.pref\.fifo\.new_entry\[9\]
*1013 cpu\.pref\.fifo\.sr_entries\[0\]\[0\]
*1014 cpu\.pref\.fifo\.sr_entries\[0\]\[10\]
*1015 cpu\.pref\.fifo\.sr_entries\[0\]\[11\]
*1016 cpu\.pref\.fifo\.sr_entries\[0\]\[12\]
*1017 cpu\.pref\.fifo\.sr_entries\[0\]\[13\]
*1018 cpu\.pref\.fifo\.sr_entries\[0\]\[14\]
*1019 cpu\.pref\.fifo\.sr_entries\[0\]\[15\]
*1020 cpu\.pref\.fifo\.sr_entries\[0\]\[1\]
*1021 cpu\.pref\.fifo\.sr_entries\[0\]\[2\]
*1022 cpu\.pref\.fifo\.sr_entries\[0\]\[3\]
*1023 cpu\.pref\.fifo\.sr_entries\[0\]\[4\]
*1024 cpu\.pref\.fifo\.sr_entries\[0\]\[5\]
*1025 cpu\.pref\.fifo\.sr_entries\[0\]\[6\]
*1026 cpu\.pref\.fifo\.sr_entries\[0\]\[7\]
*1027 cpu\.pref\.fifo\.sr_entries\[0\]\[8\]
*1028 cpu\.pref\.fifo\.sr_entries\[0\]\[9\]
*1029 cpu\.pref\.fifo\.valid\[0\]
*1030 cpu\.pref\.imm_reg\[2\]
*1031 cpu\.pref\.imm_reg\[3\]
*1032 cpu\.pref\.imm_reg\[4\]
*1033 cpu\.pref\.imm_reg\[5\]
*1034 cpu\.pref\.imm_reg\[6\]
*1035 cpu\.pref\.imm_reg\[7\]
*1036 cpu\.pref\.num_flushed\[0\]
*1037 cpu\.pref\.num_flushed\[1\]
*1038 cpu\.pref\.num_prefetched\[0\]
*1039 cpu\.pref\.num_prefetched\[1\]
*1040 cpu\.pref\.pc\[0\]
*1041 cpu\.pref\.pc\[10\]
*1042 cpu\.pref\.pc\[11\]
*1043 cpu\.pref\.pc\[12\]
*1044 cpu\.pref\.pc\[13\]
*1045 cpu\.pref\.pc\[14\]
*1046 cpu\.pref\.pc\[15\]
*1047 cpu\.pref\.pc\[1\]
*1048 cpu\.pref\.pc\[2\]
*1049 cpu\.pref\.pc\[3\]
*1050 cpu\.pref\.pc\[4\]
*1051 cpu\.pref\.pc\[5\]
*1052 cpu\.pref\.pc\[6\]
*1053 cpu\.pref\.pc\[7\]
*1054 cpu\.pref\.pc\[8\]
*1055 cpu\.pref\.pc\[9\]
*1056 cpu\.pref\.sreg_full
*1057 cpu\.pref\.sum\[2\]
*1058 net1
*1059 net100
*1060 net101
*1061 net102
*1062 net103
*1063 net104
*1064 net105
*1065 net106
*1066 net107
*1067 net108
*1068 net109
*1069 net110
*1070 net111
*1071 net112
*1072 net113
*1073 net114
*1074 net115
*1075 net116
*1076 net117
*1077 net118
*1078 net119
*1079 net120
*1080 net121
*1081 net122
*1082 net123
*1083 net124
*1084 net125
*1085 net126
*1086 net127
*1087 net128
*1088 net129
*1089 net130
*1090 net131
*1091 net132
*1092 net133
*1093 net134
*1094 net135
*1095 net136
*1096 net137
*1097 net138
*1098 net139
*1099 net140
*1100 net141
*1101 net142
*1102 net143
*1103 net144
*1104 net145
*1105 net146
*1106 net147
*1107 net148
*1108 net149
*1109 net150
*1110 net151
*1111 net152
*1112 net153
*1113 net154
*1114 net155
*1115 net156
*1116 net157
*1117 net158
*1118 net159
*1119 net160
*1120 net161
*1121 net162
*1122 net163
*1123 net164
*1124 net165
*1125 net166
*1126 net167
*1127 net168
*1128 net169
*1129 net170
*1130 net171
*1131 net172
*1132 net173
*1133 net174
*1134 net175
*1135 net176
*1136 net177
*1137 net178
*1138 net179
*1139 net180
*1140 net181
*1141 net182
*1142 net183
*1143 net184
*1144 net185
*1145 net186
*1146 net187
*1147 net188
*1148 net189
*1149 net190
*1150 net191
*1151 net192
*1152 net193
*1153 net194
*1154 net195
*1155 net196
*1156 net197
*1157 net198
*1158 net199
*1159 net2
*1160 net200
*1161 net201
*1162 net202
*1163 net203
*1164 net204
*1165 net205
*1166 net206
*1167 net207
*1168 net208
*1169 net209
*1170 net210
*1171 net211
*1172 net212
*1173 net213
*1174 net214
*1175 net215
*1176 net216
*1177 net217
*1178 net218
*1179 net219
*1180 net220
*1181 net221
*1182 net222
*1183 net223
*1184 net224
*1185 net225
*1186 net226
*1187 net28
*1188 net29
*1189 net3
*1190 net30
*1191 net31
*1192 net32
*1193 net33
*1194 net34
*1195 net35
*1196 net36
*1197 net37
*1198 net38
*1199 net39
*1200 net4
*1201 net40
*1202 net41
*1203 net42
*1204 net43
*1205 net44
*1206 net45
*1207 net46
*1208 net47
*1209 net48
*1210 net49
*1211 net5
*1212 net50
*1213 net51
*1214 net52
*1215 net53
*1216 net54
*1217 net55
*1218 net56
*1219 net57
*1220 net58
*1221 net59
*1222 net6
*1223 net60
*1224 net61
*1225 net62
*1226 net63
*1227 net64
*1228 net65
*1229 net66
*1230 net67
*1231 net68
*1232 net69
*1233 net70
*1234 net71
*1235 net72
*1236 net73
*1237 net74
*1238 net75
*1239 net76
*1240 net77
*1241 net78
*1242 net79
*1243 net80
*1244 net81
*1245 net82
*1246 net83
*1247 net84
*1248 net85
*1249 net86
*1250 net87
*1251 net88
*1252 net89
*1253 net90
*1254 net91
*1255 net92
*1256 net93
*1257 net94
*1258 net95
*1259 net96
*1260 net97
*1261 net98
*1262 net99
*1263 FILLER_0_0_104
*1264 FILLER_0_0_113
*1265 FILLER_0_0_129
*1266 FILLER_0_0_141
*1267 FILLER_0_0_147
*1268 FILLER_0_0_15
*1269 FILLER_0_0_165
*1270 FILLER_0_0_178
*1271 FILLER_0_0_187
*1272 FILLER_0_0_27
*1273 FILLER_0_0_270
*1274 FILLER_0_0_284
*1275 FILLER_0_0_29
*1276 FILLER_0_0_3
*1277 FILLER_0_0_303
*1278 FILLER_0_0_307
*1279 FILLER_0_0_333
*1280 FILLER_0_0_41
*1281 FILLER_0_0_53
*1282 FILLER_0_0_57
*1283 FILLER_0_10_107
*1284 FILLER_0_10_134
*1285 FILLER_0_10_156
*1286 FILLER_0_10_168
*1287 FILLER_0_10_195
*1288 FILLER_0_10_206
*1289 FILLER_0_10_224
*1290 FILLER_0_10_228
*1291 FILLER_0_10_269
*1292 FILLER_0_10_27
*1293 FILLER_0_10_295
*1294 FILLER_0_10_305
*1295 FILLER_0_10_334
*1296 FILLER_0_10_48
*1297 FILLER_0_10_53
*1298 FILLER_0_10_63
*1299 FILLER_0_10_83
*1300 FILLER_0_10_85
*1301 FILLER_0_10_89
*1302 FILLER_0_10_99
*1303 FILLER_0_11_106
*1304 FILLER_0_11_113
*1305 FILLER_0_11_125
*1306 FILLER_0_11_133
*1307 FILLER_0_11_152
*1308 FILLER_0_11_156
*1309 FILLER_0_11_164
*1310 FILLER_0_11_169
*1311 FILLER_0_11_177
*1312 FILLER_0_11_225
*1313 FILLER_0_11_241
*1314 FILLER_0_11_278
*1315 FILLER_0_11_281
*1316 FILLER_0_11_3
*1317 FILLER_0_11_42
*1318 FILLER_0_11_46
*1319 FILLER_0_11_73
*1320 FILLER_0_11_84
*1321 FILLER_0_12_105
*1322 FILLER_0_12_127
*1323 FILLER_0_12_141
*1324 FILLER_0_12_150
*1325 FILLER_0_12_156
*1326 FILLER_0_12_172
*1327 FILLER_0_12_193
*1328 FILLER_0_12_200
*1329 FILLER_0_12_208
*1330 FILLER_0_12_222
*1331 FILLER_0_12_228
*1332 FILLER_0_12_262
*1333 FILLER_0_12_29
*1334 FILLER_0_12_3
*1335 FILLER_0_12_318
*1336 FILLER_0_12_55
*1337 FILLER_0_12_76
*1338 FILLER_0_12_85
*1339 FILLER_0_13_103
*1340 FILLER_0_13_111
*1341 FILLER_0_13_113
*1342 FILLER_0_13_129
*1343 FILLER_0_13_150
*1344 FILLER_0_13_156
*1345 FILLER_0_13_160
*1346 FILLER_0_13_169
*1347 FILLER_0_13_179
*1348 FILLER_0_13_186
*1349 FILLER_0_13_19
*1350 FILLER_0_13_194
*1351 FILLER_0_13_223
*1352 FILLER_0_13_225
*1353 FILLER_0_13_240
*1354 FILLER_0_13_279
*1355 FILLER_0_13_298
*1356 FILLER_0_13_318
*1357 FILLER_0_13_55
*1358 FILLER_0_13_65
*1359 FILLER_0_13_78
*1360 FILLER_0_13_86
*1361 FILLER_0_14_105
*1362 FILLER_0_14_110
*1363 FILLER_0_14_120
*1364 FILLER_0_14_132
*1365 FILLER_0_14_149
*1366 FILLER_0_14_168
*1367 FILLER_0_14_183
*1368 FILLER_0_14_213
*1369 FILLER_0_14_224
*1370 FILLER_0_14_243
*1371 FILLER_0_14_251
*1372 FILLER_0_14_262
*1373 FILLER_0_14_27
*1374 FILLER_0_14_29
*1375 FILLER_0_14_3
*1376 FILLER_0_14_67
*1377 FILLER_0_14_7
*1378 FILLER_0_14_85
*1379 FILLER_0_14_97
*1380 FILLER_0_15_10
*1381 FILLER_0_15_101
*1382 FILLER_0_15_130
*1383 FILLER_0_15_136
*1384 FILLER_0_15_157
*1385 FILLER_0_15_164
*1386 FILLER_0_15_179
*1387 FILLER_0_15_185
*1388 FILLER_0_15_207
*1389 FILLER_0_15_225
*1390 FILLER_0_15_231
*1391 FILLER_0_15_25
*1392 FILLER_0_15_263
*1393 FILLER_0_15_3
*1394 FILLER_0_15_315
*1395 FILLER_0_15_60
*1396 FILLER_0_15_78
*1397 FILLER_0_16_112
*1398 FILLER_0_16_126
*1399 FILLER_0_16_138
*1400 FILLER_0_16_141
*1401 FILLER_0_16_150
*1402 FILLER_0_16_169
*1403 FILLER_0_16_186
*1404 FILLER_0_16_194
*1405 FILLER_0_16_206
*1406 FILLER_0_16_225
*1407 FILLER_0_16_245
*1408 FILLER_0_16_251
*1409 FILLER_0_16_273
*1410 FILLER_0_16_291
*1411 FILLER_0_16_309
*1412 FILLER_0_16_40
*1413 FILLER_0_16_76
*1414 FILLER_0_16_94
*1415 FILLER_0_16_98
*1416 FILLER_0_17_10
*1417 FILLER_0_17_104
*1418 FILLER_0_17_113
*1419 FILLER_0_17_120
*1420 FILLER_0_17_128
*1421 FILLER_0_17_134
*1422 FILLER_0_17_140
*1423 FILLER_0_17_152
*1424 FILLER_0_17_157
*1425 FILLER_0_17_165
*1426 FILLER_0_17_169
*1427 FILLER_0_17_193
*1428 FILLER_0_17_200
*1429 FILLER_0_17_204
*1430 FILLER_0_17_214
*1431 FILLER_0_17_222
*1432 FILLER_0_17_225
*1433 FILLER_0_17_229
*1434 FILLER_0_17_239
*1435 FILLER_0_17_262
*1436 FILLER_0_17_3
*1437 FILLER_0_17_314
*1438 FILLER_0_17_334
*1439 FILLER_0_17_40
*1440 FILLER_0_17_44
*1441 FILLER_0_17_65
*1442 FILLER_0_18_122
*1443 FILLER_0_18_135
*1444 FILLER_0_18_139
*1445 FILLER_0_18_164
*1446 FILLER_0_18_174
*1447 FILLER_0_18_211
*1448 FILLER_0_18_243
*1449 FILLER_0_18_251
*1450 FILLER_0_18_262
*1451 FILLER_0_18_29
*1452 FILLER_0_18_309
*1453 FILLER_0_18_313
*1454 FILLER_0_18_332
*1455 FILLER_0_18_49
*1456 FILLER_0_18_62
*1457 FILLER_0_18_74
*1458 FILLER_0_18_91
*1459 FILLER_0_19_10
*1460 FILLER_0_19_102
*1461 FILLER_0_19_123
*1462 FILLER_0_19_134
*1463 FILLER_0_19_146
*1464 FILLER_0_19_166
*1465 FILLER_0_19_169
*1466 FILLER_0_19_192
*1467 FILLER_0_19_203
*1468 FILLER_0_19_209
*1469 FILLER_0_19_218
*1470 FILLER_0_19_22
*1471 FILLER_0_19_261
*1472 FILLER_0_19_279
*1473 FILLER_0_19_281
*1474 FILLER_0_19_285
*1475 FILLER_0_19_3
*1476 FILLER_0_19_311
*1477 FILLER_0_19_332
*1478 FILLER_0_19_57
*1479 FILLER_0_1_129
*1480 FILLER_0_1_147
*1481 FILLER_0_1_15
*1482 FILLER_0_1_202
*1483 FILLER_0_1_223
*1484 FILLER_0_1_233
*1485 FILLER_0_1_27
*1486 FILLER_0_1_278
*1487 FILLER_0_1_3
*1488 FILLER_0_1_331
*1489 FILLER_0_1_39
*1490 FILLER_0_1_51
*1491 FILLER_0_1_55
*1492 FILLER_0_1_94
*1493 FILLER_0_20_106
*1494 FILLER_0_20_110
*1495 FILLER_0_20_138
*1496 FILLER_0_20_146
*1497 FILLER_0_20_166
*1498 FILLER_0_20_243
*1499 FILLER_0_20_250
*1500 FILLER_0_20_253
*1501 FILLER_0_20_265
*1502 FILLER_0_20_270
*1503 FILLER_0_20_287
*1504 FILLER_0_20_29
*1505 FILLER_0_20_318
*1506 FILLER_0_20_59
*1507 FILLER_0_20_63
*1508 FILLER_0_20_73
*1509 FILLER_0_20_81
*1510 FILLER_0_20_85
*1511 FILLER_0_20_94
*1512 FILLER_0_21_108
*1513 FILLER_0_21_122
*1514 FILLER_0_21_136
*1515 FILLER_0_21_147
*1516 FILLER_0_21_153
*1517 FILLER_0_21_166
*1518 FILLER_0_21_182
*1519 FILLER_0_21_195
*1520 FILLER_0_21_200
*1521 FILLER_0_21_208
*1522 FILLER_0_21_217
*1523 FILLER_0_21_223
*1524 FILLER_0_21_24
*1525 FILLER_0_21_244
*1526 FILLER_0_21_250
*1527 FILLER_0_21_263
*1528 FILLER_0_21_271
*1529 FILLER_0_21_278
*1530 FILLER_0_21_3
*1531 FILLER_0_21_315
*1532 FILLER_0_21_333
*1533 FILLER_0_21_52
*1534 FILLER_0_21_73
*1535 FILLER_0_21_81
*1536 FILLER_0_21_96
*1537 FILLER_0_22_104
*1538 FILLER_0_22_108
*1539 FILLER_0_22_118
*1540 FILLER_0_22_126
*1541 FILLER_0_22_154
*1542 FILLER_0_22_168
*1543 FILLER_0_22_174
*1544 FILLER_0_22_185
*1545 FILLER_0_22_207
*1546 FILLER_0_22_21
*1547 FILLER_0_22_218
*1548 FILLER_0_22_230
*1549 FILLER_0_22_236
*1550 FILLER_0_22_251
*1551 FILLER_0_22_269
*1552 FILLER_0_22_27
*1553 FILLER_0_22_289
*1554 FILLER_0_22_29
*1555 FILLER_0_22_3
*1556 FILLER_0_22_306
*1557 FILLER_0_22_309
*1558 FILLER_0_22_51
*1559 FILLER_0_22_67
*1560 FILLER_0_22_75
*1561 FILLER_0_22_85
*1562 FILLER_0_22_89
*1563 FILLER_0_22_99
*1564 FILLER_0_23_101
*1565 FILLER_0_23_110
*1566 FILLER_0_23_113
*1567 FILLER_0_23_119
*1568 FILLER_0_23_123
*1569 FILLER_0_23_127
*1570 FILLER_0_23_132
*1571 FILLER_0_23_144
*1572 FILLER_0_23_156
*1573 FILLER_0_23_165
*1574 FILLER_0_23_169
*1575 FILLER_0_23_180
*1576 FILLER_0_23_194
*1577 FILLER_0_23_203
*1578 FILLER_0_23_211
*1579 FILLER_0_23_217
*1580 FILLER_0_23_223
*1581 FILLER_0_23_225
*1582 FILLER_0_23_24
*1583 FILLER_0_23_290
*1584 FILLER_0_23_3
*1585 FILLER_0_23_314
*1586 FILLER_0_23_324
*1587 FILLER_0_23_334
*1588 FILLER_0_23_50
*1589 FILLER_0_23_72
*1590 FILLER_0_23_81
*1591 FILLER_0_23_93
*1592 FILLER_0_24_111
*1593 FILLER_0_24_120
*1594 FILLER_0_24_126
*1595 FILLER_0_24_136
*1596 FILLER_0_24_141
*1597 FILLER_0_24_158
*1598 FILLER_0_24_171
*1599 FILLER_0_24_194
*1600 FILLER_0_24_197
*1601 FILLER_0_24_203
*1602 FILLER_0_24_221
*1603 FILLER_0_24_229
*1604 FILLER_0_24_247
*1605 FILLER_0_24_251
*1606 FILLER_0_24_270
*1607 FILLER_0_24_289
*1608 FILLER_0_24_29
*1609 FILLER_0_24_318
*1610 FILLER_0_24_43
*1611 FILLER_0_24_47
*1612 FILLER_0_24_59
*1613 FILLER_0_24_67
*1614 FILLER_0_24_94
*1615 FILLER_0_25_108
*1616 FILLER_0_25_129
*1617 FILLER_0_25_149
*1618 FILLER_0_25_157
*1619 FILLER_0_25_169
*1620 FILLER_0_25_178
*1621 FILLER_0_25_190
*1622 FILLER_0_25_204
*1623 FILLER_0_25_213
*1624 FILLER_0_25_221
*1625 FILLER_0_25_225
*1626 FILLER_0_25_248
*1627 FILLER_0_25_254
*1628 FILLER_0_25_258
*1629 FILLER_0_25_293
*1630 FILLER_0_25_3
*1631 FILLER_0_25_305
*1632 FILLER_0_25_309
*1633 FILLER_0_25_330
*1634 FILLER_0_25_334
*1635 FILLER_0_25_45
*1636 FILLER_0_25_55
*1637 FILLER_0_25_57
*1638 FILLER_0_25_69
*1639 FILLER_0_25_73
*1640 FILLER_0_25_83
*1641 FILLER_0_25_9
*1642 FILLER_0_25_91
*1643 FILLER_0_26_106
*1644 FILLER_0_26_121
*1645 FILLER_0_26_125
*1646 FILLER_0_26_134
*1647 FILLER_0_26_141
*1648 FILLER_0_26_191
*1649 FILLER_0_26_195
*1650 FILLER_0_26_206
*1651 FILLER_0_26_247
*1652 FILLER_0_26_251
*1653 FILLER_0_26_253
*1654 FILLER_0_26_27
*1655 FILLER_0_26_271
*1656 FILLER_0_26_3
*1657 FILLER_0_26_318
*1658 FILLER_0_26_40
*1659 FILLER_0_26_57
*1660 FILLER_0_26_69
*1661 FILLER_0_26_83
*1662 FILLER_0_27_103
*1663 FILLER_0_27_111