*SPEF "ieee 1481-1999"
*DESIGN "tt_um_ccattuto_charmatrix"
*DATE "12:34:06 Wednesday May 15, 2024"
*VENDOR "The OpenROAD Project"
*PROGRAM "OpenROAD"
*VERSION "da0053d7b0014ab9c87ea148875ff6c2a0f9b658"
*DESIGN_FLOW "NAME_SCOPE LOCAL" "PIN_CAP NONE"
*DIVIDER /
*DELIMITER :
*BUS_DELIMITER []
*T_UNIT 1 NS
*C_UNIT 1 PF
*R_UNIT 1 OHM
*L_UNIT 1 HENRY

*NAME_MAP
*3 clk
*4 ena
*5 rst_n
*6 ui_in[0]
*7 ui_in[1]
*8 ui_in[2]
*9 ui_in[3]
*10 ui_in[4]
*11 ui_in[5]
*12 ui_in[6]
*13 ui_in[7]
*14 uio_in[0]
*15 uio_in[1]
*16 uio_in[2]
*17 uio_in[3]
*18 uio_in[4]
*19 uio_in[5]
*20 uio_in[6]
*21 uio_in[7]
*22 net11
*23 net12
*24 net13
*25 net14
*26 net15
*27 net16
*28 net17
*29 net18
*30 net19
*31 net20
*32 net21
*33 net22
*34 net23
*35 net24
*36 net25
*37 net26
*38 uo_out[0]
*39 uo_out[1]
*40 net27
*41 net28
*42 uo_out[4]
*43 net29
*44 net30
*45 uo_out[7]
*46 UARTReceiver_inst\.bitIndex\[0\]
*47 UARTReceiver_inst\.bitIndex\[1\]
*48 UARTReceiver_inst\.bitIndex\[2\]
*49 UARTReceiver_inst\.data\[0\]
*50 UARTReceiver_inst\.data\[1\]
*51 UARTReceiver_inst\.data\[2\]
*52 UARTReceiver_inst\.data\[3\]
*53 UARTReceiver_inst\.data\[4\]
*54 UARTReceiver_inst\.data\[5\]
*55 UARTReceiver_inst\.data\[6\]
*56 UARTReceiver_inst\.data\[7\]
*57 UARTReceiver_inst\.inputReg\[0\]
*58 UARTReceiver_inst\.inputReg\[1\]
*59 UARTReceiver_inst\.inputReg\[2\]
*60 UARTReceiver_inst\.out\[0\]
*61 UARTReceiver_inst\.out\[1\]
*62 UARTReceiver_inst\.out\[2\]
*63 UARTReceiver_inst\.out\[3\]
*64 UARTReceiver_inst\.out\[4\]
*65 UARTReceiver_inst\.out\[5\]
*66 UARTReceiver_inst\.out\[6\]
*67 UARTReceiver_inst\.out\[7\]
*68 UARTReceiver_inst\.out_latched
*69 UARTReceiver_inst\.ready
*70 UARTReceiver_inst\.rxCounter\[0\]
*71 UARTReceiver_inst\.rxCounter\[1\]
*72 UARTReceiver_inst\.rxCounter\[2\]
*73 UARTReceiver_inst\.rxCounter\[3\]
*74 UARTReceiver_inst\.rxCounter\[4\]
*75 UARTReceiver_inst\.rxCounter\[5\]
*76 UARTReceiver_inst\.rxCounter\[6\]
*77 UARTReceiver_inst\.rxCounter\[7\]
*78 UARTReceiver_inst\.sampleCount\[0\]
*79 UARTReceiver_inst\.sampleCount\[1\]
*80 UARTReceiver_inst\.sampleCount\[2\]
*81 UARTReceiver_inst\.sampleCount\[3\]
*82 UARTReceiver_inst\.state\[0\]
*83 UARTReceiver_inst\.state\[1\]
*84 UARTReceiver_inst\.state\[2\]
*85 UARTReceiver_inst\.state\[3\]
*86 UARTReceiver_inst\.valid
*87 UARTTransmitter_inst\.bitIndex\[0\]
*88 UARTTransmitter_inst\.bitIndex\[1\]
*89 UARTTransmitter_inst\.bitIndex\[2\]
*90 UARTTransmitter_inst\.data\[0\]
*91 UARTTransmitter_inst\.data\[1\]
*92 UARTTransmitter_inst\.data\[2\]
*93 UARTTransmitter_inst\.data\[3\]
*94 UARTTransmitter_inst\.data\[4\]
*95 UARTTransmitter_inst\.data\[5\]
*96 UARTTransmitter_inst\.data\[6\]
*97 UARTTransmitter_inst\.data\[7\]
*98 UARTTransmitter_inst\.out
*99 UARTTransmitter_inst\.ready
*100 UARTTransmitter_inst\.state\[0\]
*101 UARTTransmitter_inst\.state\[1\]
*102 UARTTransmitter_inst\.state\[2\]
*103 UARTTransmitter_inst\.state\[3\]
*104 UARTTransmitter_inst\.txCounter\[0\]
*105 UARTTransmitter_inst\.txCounter\[10\]
*106 UARTTransmitter_inst\.txCounter\[11\]
*107 UARTTransmitter_inst\.txCounter\[1\]
*108 UARTTransmitter_inst\.txCounter\[2\]
*109 UARTTransmitter_inst\.txCounter\[3\]
*110 UARTTransmitter_inst\.txCounter\[4\]
*111 UARTTransmitter_inst\.txCounter\[5\]
*112 UARTTransmitter_inst\.txCounter\[6\]
*113 UARTTransmitter_inst\.txCounter\[7\]
*114 UARTTransmitter_inst\.txCounter\[8\]
*115 UARTTransmitter_inst\.txCounter\[9\]
*116 UARTTransmitter_inst\.valid
*117 _0000_
*118 _0001_
*119 _0002_
*120 _0003_
*121 _0004_
*122 _0005_
*123 _0006_
*124 _0007_
*125 _0008_
*126 _0009_
*127 _0010_
*128 _0011_
*129 _0012_
*130 _0013_
*131 _0014_
*132 _0015_
*133 _0016_
*134 _0017_
*135 _0018_
*136 _0019_
*137 _0020_
*138 _0021_
*139 _0022_
*140 _0023_
*141 _0024_
*142 _0025_
*143 _0026_
*144 _0027_
*145 _0028_
*146 _0029_
*147 _0030_
*148 _0031_
*149 _0032_
*150 _0033_
*151 _0034_
*152 _0035_
*153 _0036_
*154 _0037_
*155 _0038_
*156 _0039_
*157 _0040_
*158 _0041_
*159 _0042_
*160 _0043_
*161 _0044_
*162 _0045_
*163 _0046_
*164 _0047_
*165 _0048_
*166 _0049_
*167 _0050_
*168 _0051_
*169 _0052_
*170 _0053_
*171 _0054_
*172 _0055_
*173 _0056_
*174 _0057_
*175 _0058_
*176 _0059_
*177 _0060_
*178 _0061_
*179 _0062_
*180 _0063_
*181 _0064_
*182 _0065_
*183 _0066_
*184 _0067_
*185 _0068_
*186 _0069_
*187 _0070_
*188 _0071_
*189 _0072_
*190 _0073_
*191 _0074_
*192 _0075_
*193 _0076_
*194 _0077_
*195 _0078_
*196 _0079_
*197 _0080_
*198 _0081_
*199 _0082_
*200 _0083_
*201 _0084_
*202 _0085_
*203 _0086_
*204 _0087_
*205 _0088_
*206 _0089_
*207 _0090_
*208 _0091_
*209 _0092_
*210 _0093_
*211 _0094_
*212 _0095_
*213 _0096_
*214 _0097_
*215 _0098_
*216 _0099_
*217 _0100_
*218 _0101_
*219 _0102_
*220 _0103_
*221 _0104_
*222 _0105_
*223 _0106_
*224 _0107_
*225 _0108_
*226 _0109_
*227 _0110_
*228 _0111_
*229 _0112_
*230 _0113_
*231 _0114_
*232 _0115_
*233 _0116_
*234 _0117_
*235 _0118_
*236 _0119_
*237 _0120_
*238 _0121_
*239 _0122_
*240 _0123_
*241 _0124_
*242 _0125_
*243 _0126_
*244 _0127_
*245 _0128_
*246 _0129_
*247 _0130_
*248 _0131_
*249 _0132_
*250 _0133_
*251 _0134_
*252 _0135_
*253 _0136_
*254 _0137_
*255 _0138_
*256 _0139_
*257 _0140_
*258 _0141_
*259 _0142_
*260 _0143_
*261 _0144_
*262 _0145_
*263 _0146_
*264 _0147_
*265 _0148_
*266 _0149_
*267 _0150_
*268 _0151_
*269 _0152_
*270 _0153_
*271 _0154_
*272 _0155_
*273 _0156_
*274 _0157_
*275 _0158_
*276 _0159_
*277 _0160_
*278 _0161_
*279 _0162_
*280 _0163_
*281 _0164_
*282 _0165_
*283 _0166_
*284 _0167_
*285 _0168_
*286 _0169_
*287 _0170_
*288 _0171_
*289 _0172_
*290 _0173_
*291 _0174_
*292 _0175_
*293 _0176_
*294 _0177_
*295 _0178_
*296 _0179_
*297 _0180_
*298 _0181_
*299 _0182_
*300 _0183_
*301 _0184_
*302 _0185_
*303 _0186_
*304 _0187_
*305 _0188_
*306 _0189_
*307 _0190_
*308 _0191_
*309 _0192_
*310 _0193_
*311 _0194_
*312 _0195_
*313 _0196_
*314 _0197_
*315 _0198_
*316 _0199_
*317 _0200_
*318 _0201_
*319 _0202_
*320 _0203_
*321 _0204_
*322 _0205_
*323 _0206_
*324 _0207_
*325 _0208_
*326 _0209_
*327 _0210_
*328 _0211_
*329 _0212_
*330 _0213_
*331 _0214_
*332 _0215_
*333 _0216_
*334 _0217_
*335 _0218_
*336 _0219_
*337 _0220_
*338 _0221_
*339 _0222_
*340 _0223_
*341 _0224_
*342 _0225_
*343 _0226_
*344 _0227_
*345 _0228_
*346 _0229_
*347 _0230_
*348 _0231_
*349 _0232_
*350 _0233_
*351 _0234_
*352 _0235_
*353 _0236_
*354 _0237_
*355 _0238_
*356 _0239_
*357 _0240_
*358 _0241_
*359 _0242_
*360 _0243_
*361 _0244_
*362 _0245_
*363 _0246_
*364 _0247_
*365 _0248_
*366 _0249_
*367 _0250_
*368 _0251_
*369 _0252_
*370 _0253_
*371 _0254_
*372 _0255_
*373 _0256_
*374 _0257_
*375 _0258_
*376 _0259_
*377 _0260_
*378 _0261_
*379 _0262_
*380 _0263_
*381 _0264_
*382 _0265_
*383 _0266_
*384 _0267_
*385 _0268_
*386 _0269_
*387 _0270_
*388 _0271_
*389 _0272_
*390 _0273_
*391 _0274_
*392 _0275_
*393 _0276_
*394 _0277_
*395 _0278_
*396 _0279_
*397 _0280_
*398 _0281_
*399 _0282_
*400 _0283_
*401 _0284_
*402 _0285_
*403 _0286_
*404 _0287_
*405 _0288_
*406 _0289_
*407 _0290_
*408 _0291_
*409 _0292_
*410 _0293_
*411 _0294_
*412 _0295_
*413 _0296_
*414 _0297_
*415 _0298_
*416 _0299_
*417 _0300_
*418 _0301_
*419 _0302_
*420 _0303_
*421 _0304_
*422 _0305_
*423 _0306_
*424 _0307_
*425 _0308_
*426 _0309_
*427 _0310_
*428 _0311_
*429 _0312_
*430 _0313_
*431 _0314_
*432 _0315_
*433 _0316_
*434 _0317_
*435 _0318_
*436 _0319_
*437 _0320_
*438 _0321_
*439 _0322_
*440 _0323_
*441 _0324_
*442 _0325_
*443 _0326_
*444 _0327_
*445 _0328_
*446 _0329_
*447 _0330_
*448 _0331_
*449 _0332_
*450 _0333_
*451 _0334_
*452 _0335_
*453 _0336_
*454 _0337_
*455 _0338_
*456 _0339_
*457 _0340_
*458 _0341_
*459 _0342_
*460 _0343_
*461 _0344_
*462 _0345_
*463 _0346_
*464 _0347_
*465 _0348_
*466 _0349_
*467 _0350_
*468 _0351_
*469 _0352_
*470 _0353_
*471 _0354_
*472 _0355_
*473 _0356_
*474 _0357_
*475 _0358_
*476 _0359_
*477 _0360_
*478 _0361_
*479 _0362_
*480 _0363_
*481 _0364_
*482 _0365_
*483 _0366_
*484 _0367_
*485 _0368_
*486 _0369_
*487 _0370_
*488 _0371_
*489 _0372_
*490 _0373_
*491 _0374_
*492 _0375_
*493 _0376_
*494 _0377_
*495 _0378_
*496 _0379_
*497 _0380_
*498 _0381_
*499 _0382_
*500 _0383_
*501 _0384_
*502 _0385_
*503 _0386_
*504 _0387_
*505 _0388_
*506 _0389_
*507 _0390_
*508 _0391_
*509 _0392_
*510 _0393_
*511 _0394_
*512 _0395_
*513 _0396_
*514 _0397_
*515 _0398_
*516 _0399_
*517 _0400_
*518 _0401_
*519 _0402_
*520 _0403_
*521 _0404_
*522 _0405_
*523 _0406_
*524 _0407_
*525 _0408_
*526 _0409_
*527 _0410_
*528 _0411_
*529 _0412_
*530 _0413_
*531 _0414_
*532 _0415_
*533 _0416_
*534 _0417_
*535 _0418_
*536 _0419_
*537 _0420_
*538 _0421_
*539 _0422_
*540 _0423_
*541 _0424_
*542 _0425_
*543 _0426_
*544 _0427_
*545 _0428_
*546 _0429_
*547 _0430_
*548 _0431_
*549 _0432_
*550 _0433_
*551 _0434_
*552 _0435_
*553 _0436_
*554 _0437_
*555 _0438_
*556 _0439_
*557 _0440_
*558 _0441_
*559 _0442_
*560 _0443_
*561 _0444_
*562 _0445_
*563 _0446_
*564 _0447_
*565 _0448_
*566 _0449_
*567 _0450_
*568 _0451_
*569 _0452_
*570 _0453_
*571 _0454_
*572 _0455_
*573 _0456_
*574 _0457_
*575 _0458_
*576 _0459_
*577 _0460_
*578 _0461_
*579 _0462_
*580 _0463_
*581 _0464_
*582 _0465_
*583 _0466_
*584 _0467_
*585 _0468_
*586 _0469_
*587 _0470_
*588 _0471_
*589 _0472_
*590 _0473_
*591 _0474_
*592 _0475_
*593 _0476_
*594 _0477_
*595 _0478_
*596 _0479_
*597 _0480_
*598 _0481_
*599 _0482_
*600 _0483_
*601 _0484_
*602 _0485_
*603 _0486_
*604 _0487_
*605 _0488_
*606 _0489_
*607 _0490_
*608 _0491_
*609 _0492_
*610 _0493_
*611 _0494_
*612 _0495_
*613 _0496_
*614 _0497_
*615 _0498_
*616 _0499_
*617 _0500_
*618 _0501_
*619 _0502_
*620 _0503_
*621 _0504_
*622 _0505_
*623 _0506_
*624 _0507_
*625 _0508_
*626 _0509_
*627 _0510_
*628 _0511_
*629 _0512_
*630 _0513_
*631 _0514_
*632 _0515_
*633 _0516_
*634 _0517_
*635 _0518_
*636 _0519_
*637 _0520_
*638 _0521_
*639 _0522_
*640 _0523_
*641 _0524_
*642 _0525_
*643 _0526_
*644 _0527_
*645 _0528_
*646 _0529_
*647 _0530_
*648 _0531_
*649 _0532_
*650 _0533_
*651 _0534_
*652 _0535_
*653 _0536_
*654 _0537_
*655 _0538_
*656 _0539_
*657 _0540_
*658 _0541_
*659 _0542_
*660 _0543_
*661 _0544_
*662 _0545_
*663 _0546_
*664 _0547_
*665 _0548_
*666 _0549_
*667 _0550_
*668 _0551_
*669 _0552_
*670 _0553_
*671 _0554_
*672 _0555_
*673 _0556_
*674 _0557_
*675 _0558_
*676 _0559_
*677 _0560_
*678 _0561_
*679 _0562_
*680 _0563_
*681 _0564_
*682 _0565_
*683 _0566_
*684 _0567_
*685 _0568_
*686 _0569_
*687 _0570_
*688 _0571_
*689 _0572_
*690 _0573_
*691 _0574_
*692 _0575_
*693 _0576_
*694 _0577_
*695 _0578_
*696 _0579_
*697 _0580_
*698 _0581_
*699 _0582_
*700 _0583_
*701 _0584_
*702 _0585_
*703 _0586_
*704 _0587_
*705 _0588_
*706 _0589_
*707 _0590_
*708 _0591_
*709 _0592_
*710 _0593_
*711 _0594_
*712 _0595_
*713 _0596_
*714 _0597_
*715 _0598_
*716 _0599_
*717 _0600_
*718 _0601_
*719 _0602_
*720 _0603_
*721 _0604_
*722 _0605_
*723 _0606_
*724 _0607_
*725 _0608_
*726 _0609_
*727 _0610_
*728 _0611_
*729 _0612_
*730 _0613_
*731 _0614_
*732 _0615_
*733 _0616_
*734 _0617_
*735 _0618_
*736 _0619_
*737 _0620_
*738 _0621_
*739 _0622_
*740 _0623_
*741 _0624_
*742 _0625_
*743 _0626_
*744 _0627_
*745 _0628_
*746 _0629_
*747 _0630_
*748 _0631_
*749 _0632_
*750 _0633_
*751 _0634_
*752 _0635_
*753 _0636_
*754 _0637_
*755 _0638_
*756 _0639_
*757 _0640_
*758 _0641_
*759 _0642_
*760 _0643_
*761 _0644_
*762 _0645_
*763 _0646_
*764 _0647_
*765 _0648_
*766 _0649_
*767 _0650_
*768 _0651_
*769 _0652_
*770 _0653_
*771 _0654_
*772 _0655_
*773 _0656_
*774 _0657_
*775 _0658_
*776 _0659_
*777 _0660_
*778 _0661_
*779 _0662_
*780 _0663_
*781 _0664_
*782 _0665_
*783 _0666_
*784 _0667_
*785 _0668_
*786 _0669_
*787 _0670_
*788 _0671_
*789 _0672_
*790 _0673_
*791 _0674_
*792 _0675_
*793 _0676_
*794 _0677_
*795 _0678_
*796 _0679_
*797 _0680_
*798 _0681_
*799 _0682_
*800 _0683_
*801 _0684_
*802 _0685_
*803 _0686_
*804 _0687_
*805 _0688_
*806 _0689_
*807 _0690_
*808 _0691_
*809 _0692_
*810 _0693_
*811 _0694_
*812 _0695_
*813 _0696_
*814 _0697_
*815 _0698_
*816 _0699_
*817 _0700_
*818 _0701_
*819 _0702_
*820 _0703_
*821 _0704_
*822 _0705_
*823 _0706_
*824 _0707_
*825 _0708_
*826 _0709_
*827 _0710_
*828 _0711_
*829 _0712_
*830 _0713_
*831 _0714_
*832 _0715_
*833 _0716_
*834 _0717_
*835 _0718_
*836 _0719_
*837 _0720_
*838 _0721_
*839 _0722_
*840 _0723_
*841 _0724_
*842 _0725_
*843 _0726_
*844 _0727_
*845 _0728_
*846 _0729_
*847 _0730_
*848 _0731_
*849 _0732_
*850 _0733_
*851 _0734_
*852 _0735_
*853 _0736_
*854 _0737_
*855 _0738_
*856 _0739_
*857 _0740_
*858 _0741_
*859 _0742_
*860 _0743_
*861 _0744_
*862 _0745_
*863 _0746_
*864 _0747_
*865 _0748_
*866 _0749_
*867 _0750_
*868 _0751_
*869 _0752_
*870 _0753_
*871 _0754_
*872 _0755_
*873 _0756_
*874 _0757_
*875 _0758_
*876 _0759_
*877 _0760_
*878 _0761_
*879 _0762_
*880 _0763_
*881 _0764_
*882 _0765_
*883 _0766_
*884 _0767_
*885 _0768_
*886 _0769_
*887 _0770_
*888 _0771_
*889 _0772_
*890 _0773_
*891 _0774_
*892 _0775_
*893 _0776_
*894 _0777_
*895 _0778_
*896 _0779_
*897 _0780_
*898 _0781_
*899 _0782_
*900 _0783_
*901 _0784_
*902 _0785_
*903 _0786_
*904 _0787_
*905 _0788_
*906 _0789_
*907 _0790_
*908 _0791_
*909 _0792_
*910 _0793_
*911 _0794_
*912 _0795_
*913 _0796_
*914 _0797_
*915 _0798_
*916 _0799_
*917 _0800_
*918 _0801_
*919 _0802_
*920 _0803_
*921 _0804_
*922 _0805_
*923 _0806_
*924 _0807_
*925 _0808_
*926 _0809_
*927 _0810_
*928 _0811_
*929 _0812_
*930 _0813_
*931 _0814_
*932 _0815_
*933 _0816_
*934 _0817_
*935 _0818_
*936 _0819_
*937 _0820_
*938 _0821_
*939 _0822_
*940 _0823_
*941 _0824_
*942 _0825_
*943 _0826_
*944 _0827_
*945 _0828_
*946 _0829_
*947 _0830_
*948 _0831_
*949 _0832_
*950 _0833_
*951 _0834_
*952 _0835_
*953 _0836_
*954 _0837_
*955 _0838_
*956 _0839_
*957 _0840_
*958 _0841_
*959 _0842_
*960 _0843_
*961 _0844_
*962 _0845_
*963 _0846_
*964 _0847_
*965 _0848_
*966 _0849_
*967 _0850_
*968 _0851_
*969 _0852_
*970 _0853_
*971 _0854_
*972 _0855_
*973 _0856_
*974 _0857_
*975 _0858_
*976 _0859_
*977 _0860_
*978 _0861_
*979 _0862_
*980 _0863_
*981 _0864_
*982 _0865_
*983 _0866_
*984 _0867_
*985 _0868_
*986 _0869_
*987 _0870_
*988 _0871_
*989 _0872_
*990 _0873_
*991 _0874_
*992 _0875_
*993 _0876_
*994 _0877_
*995 _0878_
*996 _0879_
*997 _0880_
*998 _0881_
*999 _0882_
*1000 _0883_
*1001 _0884_
*1002 _0885_
*1003 _0886_
*1004 _0887_
*1005 _0888_
*1006 _0889_
*1007 _0890_
*1008 _0891_
*1009 _0892_
*1010 _0893_
*1011 _0894_
*1012 _0895_
*1013 _0896_
*1014 _0897_
*1015 _0898_
*1016 _0899_
*1017 _0900_
*1018 _0901_
*1019 _0902_
*1020 _0903_
*1021 _0904_
*1022 _0905_
*1023 _0906_
*1024 _0907_
*1025 _0908_
*1026 _0909_
*1027 _0910_
*1028 _0911_
*1029 _0912_
*1030 _0913_
*1031 _0914_
*1032 _0915_
*1033 _0916_
*1034 _0917_
*1035 _0918_
*1036 _0919_
*1037 _0920_
*1038 _0921_
*1039 _0922_
*1040 _0923_
*1041 _0924_
*1042 _0925_
*1043 _0926_
*1044 _0927_
*1045 _0928_
*1046 _0929_
*1047 _0930_
*1048 _0931_
*1049 _0932_
*1050 _0933_
*1051 _0934_
*1052 _0935_
*1053 _0936_
*1054 _0937_
*1055 _0938_
*1056 _0939_
*1057 _0940_
*1058 _0941_
*1059 _0942_
*1060 _0943_
*1061 _0944_
*1062 _0945_
*1063 _0946_
*1064 _0947_
*1065 _0948_
*1066 _0949_
*1067 _0950_
*1068 _0951_
*1069 _0952_
*1070 _0953_
*1071 _0954_
*1072 _0955_
*1073 _0956_
*1074 _0957_
*1075 _0958_
*1076 _0959_
*1077 _0960_
*1078 _0961_
*1079 _0962_
*1080 _0963_
*1081 _0964_
*1082 _0965_
*1083 _0966_
*1084 _0967_
*1085 _0968_
*1086 _0969_
*1087 _0970_
*1088 _0971_
*1089 _0972_
*1090 _0973_
*1091 _0974_
*1092 _0975_
*1093 _0976_
*1094 _0977_
*1095 _0978_
*1096 _0979_
*1097 _0980_
*1098 _0981_
*1099 _0982_
*1100 _0983_
*1101 _0984_
*1102 _0985_
*1103 _0986_
*1104 _0987_
*1105 _0988_
*1106 _0989_
*1107 _0990_
*1108 _0991_
*1109 _0992_
*1110 _0993_
*1111 _0994_
*1112 _0995_
*1113 _0996_
*1114 _0997_
*1115 _0998_
*1116 _0999_
*1117 _1000_
*1118 _1001_
*1119 _1002_
*1120 _1003_
*1121 _1004_
*1122 _1005_
*1123 _1006_
*1124 _1007_
*1125 _1008_
*1126 _1009_
*1127 _1010_
*1128 _1011_
*1129 _1012_
*1130 _1013_
*1131 _1014_
*1132 _1015_
*1133 _1016_
*1134 _1017_
*1135 _1018_
*1136 _1019_
*1137 _1020_
*1138 _1021_
*1139 _1022_
*1140 _1023_
*1141 _1024_
*1142 _1025_
*1143 _1026_
*1144 _1027_
*1145 _1028_
*1146 _1029_
*1147 _1030_
*1148 _1031_
*1149 _1032_
*1150 _1033_
*1151 _1034_
*1152 _1035_
*1153 _1036_
*1154 _1037_
*1155 _1038_
*1156 _1039_
*1157 _1040_
*1158 _1041_
*1159 _1042_
*1160 _1043_
*1161 _1044_
*1162 _1045_
*1163 _1046_
*1164 _1047_
*1165 _1048_
*1166 _1049_
*1167 _1050_
*1168 _1051_
*1169 _1052_
*1170 _1053_
*1171 _1054_
*1172 _1055_
*1173 _1056_
*1174 _1057_
*1175 _1058_
*1176 _1059_
*1177 _1060_
*1178 _1061_
*1179 _1062_
*1180 _1063_
*1181 _1064_
*1182 _1065_
*1183 _1066_
*1184 _1067_
*1185 _1068_
*1186 _1069_
*1187 _1070_
*1188 _1071_
*1189 _1072_
*1190 _1073_
*1191 _1074_
*1192 _1075_
*1193 _1076_
*1194 _1077_
*1195 _1078_
*1196 _1079_
*1197 _1080_
*1198 _1081_
*1199 _1082_
*1200 _1083_
*1201 _1084_
*1202 _1085_
*1203 _1086_
*1204 _1087_
*1205 _1088_
*1206 _1089_
*1207 _1090_
*1208 _1091_
*1209 _1092_
*1210 _1093_
*1211 _1094_
*1212 _1095_
*1213 _1096_
*1214 _1097_
*1215 _1098_
*1216 _1099_
*1217 _1100_
*1218 _1101_
*1219 _1102_
*1220 _1103_
*1221 _1104_
*1222 _1105_
*1223 _1106_
*1224 _1107_
*1225 _1108_
*1226 _1109_
*1227 _1110_
*1228 _1111_
*1229 _1112_
*1230 _1113_
*1231 _1114_
*1232 _1115_
*1233 _1116_
*1234 _1117_
*1235 _1118_
*1236 _1119_
*1237 _1120_
*1238 _1121_
*1239 _1122_
*1240 _1123_
*1241 _1124_
*1242 _1125_
*1243 _1126_
*1244 _1127_
*1245 _1128_
*1246 _1129_
*1247 _1130_
*1248 _1131_
*1249 _1132_
*1250 _1133_
*1251 _1134_
*1252 _1135_
*1253 _1136_
*1254 _1137_
*1255 _1138_
*1256 _1139_
*1257 _1140_
*1258 _1141_
*1259 _1142_
*1260 _1143_
*1261 _1144_
*1262 _1145_
*1263 _1146_
*1264 _1147_
*1265 _1148_
*1266 _1149_
*1267 _1150_
*1268 _1151_
*1269 _1152_
*1270 _1153_
*1271 _1154_
*1272 _1155_
*1273 _1156_
*1274 _1157_
*1275 _1158_
*1276 _1159_
*1277 _1160_
*1278 _1161_
*1279 _1162_
*1280 _1163_
*1281 _1164_
*1282 _1165_
*1283 _1166_
*1284 _1167_
*1285 _1168_
*1286 _1169_
*1287 _1170_
*1288 _1171_
*1289 _1172_
*1290 _1173_
*1291 _1174_
*1292 _1175_
*1293 _1176_
*1294 _1177_
*1295 _1178_
*1296 _1179_
*1297 _1180_
*1298 _1181_
*1299 _1182_
*1300 _1183_
*1301 _1184_
*1302 _1185_
*1303 _1186_
*1304 _1187_
*1305 _1188_
*1306 _1189_
*1307 _1190_
*1308 _1191_
*1309 _1192_
*1310 _1193_
*1311 _1194_
*1312 _1195_
*1313 _1196_
*1314 _1197_
*1315 _1198_
*1316 _1199_
*1317 _1200_
*1318 _1201_
*1319 _1202_
*1320 _1203_
*1321 _1204_
*1322 _1205_
*1323 _1206_
*1324 _1207_
*1325 _1208_
*1326 _1209_
*1327 _1210_
*1328 _1211_
*1329 _1212_
*1330 _1213_
*1331 _1214_
*1332 _1215_
*1333 _1216_
*1334 _1217_
*1335 _1218_
*1336 _1219_
*1337 _1220_
*1338 _1221_
*1339 _1222_
*1340 _1223_
*1341 _1224_
*1342 _1225_
*1343 _1226_
*1344 _1227_
*1345 _1228_
*1346 _1229_
*1347 _1230_
*1348 _1231_
*1349 _1232_
*1350 _1233_
*1351 _1234_
*1352 _1235_
*1353 _1236_
*1354 _1237_
*1355 _1238_
*1356 _1239_
*1357 _1240_
*1358 _1241_
*1359 _1242_
*1360 _1243_
*1361 _1244_
*1362 _1245_
*1363 _1246_
*1364 _1247_
*1365 _1248_
*1366 _1249_
*1367 _1250_
*1368 _1251_
*1369 _1252_
*1370 _1253_
*1371 _1254_
*1372 _1255_
*1373 _1256_
*1374 _1257_
*1375 _1258_
*1376 _1259_
*1377 _1260_
*1378 _1261_
*1379 _1262_
*1380 _1263_
*1381 _1264_
*1382 _1265_
*1383 _1266_
*1384 _1267_
*1385 _1268_
*1386 _1269_
*1387 _1270_
*1388 _1271_
*1389 _1272_
*1390 _1273_
*1391 _1274_
*1392 _1275_
*1393 _1276_
*1394 _1277_
*1395 _1278_
*1396 _1279_
*1397 _1280_
*1398 _1281_
*1399 _1282_
*1400 _1283_
*1401 _1284_
*1402 _1285_
*1403 _1286_
*1404 _1287_
*1405 _1288_
*1406 _1289_
*1407 _1290_
*1408 _1291_
*1409 _1292_
*1410 _1293_
*1411 _1294_
*1412 _1295_
*1413 _1296_
*1414 _1297_
*1415 _1298_
*1416 _1299_
*1417 _1300_
*1418 _1301_
*1419 _1302_
*1420 _1303_
*1421 _1304_
*1422 _1305_
*1423 _1306_
*1424 _1307_
*1425 _1308_
*1426 _1309_
*1427 _1310_
*1428 _1311_
*1429 _1312_
*1430 _1313_
*1431 _1314_
*1432 _1315_
*1433 _1316_
*1434 _1317_
*1435 _1318_
*1436 _1319_
*1437 _1320_
*1438 _1321_
*1439 _1322_
*1440 _1323_
*1441 _1324_
*1442 _1325_
*1443 _1326_
*1444 _1327_
*1445 _1328_
*1446 _1329_
*1447 _1330_
*1448 _1331_
*1449 _1332_
*1450 _1333_
*1451 _1334_
*1452 _1335_
*1453 _1336_
*1454 _1337_
*1455 _1338_
*1456 _1339_
*1457 _1340_
*1458 _1341_
*1459 _1342_
*1460 _1343_
*1461 _1344_
*1462 _1345_
*1463 _1346_
*1464 _1347_
*1465 _1348_
*1466 _1349_
*1467 _1350_
*1468 _1351_
*1469 _1352_
*1470 _1353_
*1471 _1354_
*1472 _1355_
*1473 _1356_
*1474 _1357_
*1475 _1358_
*1476 _1359_
*1477 _1360_
*1478 _1361_
*1479 _1362_
*1480 _1363_
*1481 _1364_
*1482 _1365_
*1483 _1366_
*1484 _1367_
*1485 _1368_
*1486 _1369_
*1487 _1370_
*1488 _1371_
*1489 _1372_
*1490 _1373_
*1491 _1374_
*1492 _1375_
*1493 _1376_
*1494 _1377_
*1495 _1378_
*1496 _1379_
*1497 _1380_
*1498 _1381_
*1499 _1382_
*1500 _1383_
*1501 _1384_
*1502 _1385_
*1503 _1386_
*1504 _1387_
*1505 _1388_
*1506 _1389_
*1507 _1390_
*1508 _1391_
*1509 _1392_
*1510 _1393_
*1511 _1394_
*1512 _1395_
*1513 _1396_
*1514 _1397_
*1515 _1398_
*1516 _1399_
*1517 _1400_
*1518 _1401_
*1519 _1402_
*1520 _1403_
*1521 _1404_
*1522 _1405_
*1523 _1406_
*1524 _1407_
*1525 _1408_
*1526 _1409_
*1527 _1410_
*1528 _1411_
*1529 _1412_
*1530 _1413_
*1531 _1414_
*1532 _1415_
*1533 _1416_
*1534 _1417_
*1535 _1418_
*1536 _1419_
*1537 _1420_
*1538 _1421_
*1539 _1422_
*1540 _1423_
*1541 _1424_
*1542 _1425_
*1543 _1426_
*1544 _1427_
*1545 _1428_
*1546 _1429_
*1547 _1430_
*1548 _1431_
*1549 _1432_
*1550 _1433_
*1551 _1434_
*1552 _1435_
*1553 _1436_
*1554 _1437_
*1555 _1438_
*1556 _1439_
*1557 _1440_
*1558 _1441_
*1559 _1442_
*1560 _1443_
*1561 _1444_
*1562 _1445_
*1563 _1446_
*1564 _1447_
*1565 _1448_
*1566 _1449_
*1567 _1450_
*1568 _1451_
*1569 _1452_
*1570 _1453_
*1571 _1454_
*1572 _1455_
*1573 _1456_
*1574 _1457_
*1575 _1458_
*1576 _1459_
*1577 _1460_
*1578 _1461_
*1579 _1462_
*1580 _1463_
*1581 _1464_
*1582 _1465_
*1583 _1466_
*1584 _1467_
*1585 _1468_
*1586 _1469_
*1587 _1470_
*1588 _1471_
*1589 _1472_
*1590 _1473_
*1591 _1474_
*1592 _1475_
*1593 _1476_
*1594 _1477_
*1595 _1478_
*1596 _1479_
*1597 _1480_
*1598 _1481_
*1599 _1482_
*1600 _1483_
*1601 _1484_
*1602 _1485_
*1603 _1486_
*1604 _1487_
*1605 _1488_
*1606 _1489_
*1607 _1490_
*1608 _1491_
*1609 _1492_
*1610 _1493_
*1611 _1494_
*1612 _1495_
*1613 _1496_
*1614 _1497_
*1615 _1498_
*1616 _1499_
*1617 _1500_
*1618 _1501_
*1619 _1502_
*1620 _1503_
*1621 _1504_
*1622 _1505_
*1623 _1506_
*1624 _1507_
*1625 _1508_
*1626 _1509_
*1627 _1510_
*1628 _1511_
*1629 _1512_
*1630 _1513_
*1631 _1514_
*1632 _1515_
*1633 _1516_
*1634 _1517_
*1635 _1518_
*1636 _1519_
*1637 _1520_
*1638 _1521_
*1639 _1522_
*1640 _1523_
*1641 _1524_
*1642 _1525_
*1643 _1526_
*1644 _1527_
*1645 _1528_
*1646 _1529_
*1647 _1530_
*1648 _1531_
*1649 _1532_
*1650 _1533_
*1651 _1534_
*1652 _1535_
*1653 _1536_
*1654 _1537_
*1655 _1538_
*1656 _1539_
*1657 _1540_
*1658 _1541_
*1659 _1542_
*1660 _1543_
*1661 _1544_
*1662 _1545_
*1663 _1546_
*1664 _1547_
*1665 _1548_
*1666 _1549_
*1667 _1550_
*1668 _1551_
*1669 _1552_
*1670 _1553_
*1671 _1554_
*1672 _1555_
*1673 _1556_
*1674 _1557_
*1675 _1558_
*1676 _1559_
*1677 _1560_
*1678 _1561_
*1679 _1562_
*1680 _1563_
*1681 _1564_
*1682 _1565_
*1683 _1566_
*1684 _1567_
*1685 _1568_
*1686 _1569_
*1687 _1570_
*1688 _1571_
*1689 _1572_
*1690 _1573_
*1691 _1574_
*1692 _1575_
*1693 _1576_
*1694 _1577_
*1695 _1578_
*1696 _1579_
*1697 _1580_
*1698 _1581_
*1699 _1582_
*1700 _1583_
*1701 _1584_
*1702 _1585_
*1703 _1586_
*1704 _1587_
*1705 _1588_
*1706 _1589_
*1707 _1590_
*1708 _1591_
*1709 _1592_
*1710 _1593_
*1711 _1594_
*1712 _1595_
*1713 _1596_
*1714 _1597_
*1715 _1598_
*1716 _1599_
*1717 _1600_
*1718 _1601_
*1719 _1602_
*1720 _1603_
*1721 _1604_
*1722 _1605_
*1723 _1606_
*1724 _1607_
*1725 _1608_
*1726 _1609_
*1727 _1610_
*1728 _1611_
*1729 _1612_
*1730 _1613_
*1731 _1614_
*1732 _1615_
*1733 _1616_
*1734 _1617_
*1735 _1618_
*1736 _1619_
*1737 _1620_
*1738 _1621_
*1739 _1622_
*1740 _1623_
*1741 _1624_
*1742 _1625_
*1743 _1626_
*1744 _1627_
*1745 char_led_index\[0\]
*1746 char_led_index\[1\]
*1747 char_led_index\[2\]
*1748 char_led_index\[3\]
*1749 char_led_index\[4\]
*1750 char_led_index\[5\]
*1751 char_rom_inst\.address\[0\]
*1752 char_rom_inst\.address\[1\]
*1753 char_rom_inst\.address\[2\]
*1754 char_rom_inst\.address\[3\]
*1755 char_rom_inst\.address\[4\]
*1756 char_rom_inst\.address\[5\]
*1757 char_rom_inst\.address\[6\]
*1758 char_rom_inst\.address\[7\]
*1759 clknet_0_clk
*1760 clknet_1_0__leaf_clk
*1761 clknet_1_1__leaf_clk
*1762 clknet_leaf_0_clk
*1763 clknet_leaf_10_clk
*1764 clknet_leaf_11_clk
*1765 clknet_leaf_12_clk
*1766 clknet_leaf_13_clk
*1767 clknet_leaf_14_clk
*1768 clknet_leaf_15_clk
*1769 clknet_leaf_16_clk
*1770 clknet_leaf_17_clk
*1771 clknet_leaf_1_clk
*1772 clknet_leaf_2_clk
*1773 clknet_leaf_3_clk
*1774 clknet_leaf_4_clk
*1775 clknet_leaf_5_clk
*1776 clknet_leaf_6_clk
*1777 clknet_leaf_7_clk
*1778 clknet_leaf_8_clk
*1779 clknet_leaf_9_clk
*1780 color_rom_inst\.address\[0\]
*1781 color_rom_inst\.address\[1\]
*1782 color_rom_inst\.address\[2\]
*1783 color_rom_inst\.address\[3\]
*1784 colorbuf\[0\]\[0\]
*1785 colorbuf\[0\]\[1\]
*1786 colorbuf\[0\]\[2\]
*1787 colorbuf\[0\]\[3\]
*1788 colorbuf\[1\]\[0\]
*1789 colorbuf\[1\]\[1\]
*1790 colorbuf\[1\]\[2\]
*1791 colorbuf\[1\]\[3\]
*1792 colorbuf\[2\]\[0\]
*1793 colorbuf\[2\]\[1\]
*1794 colorbuf\[2\]\[2\]
*1795 colorbuf\[2\]\[3\]
*1796 colorbuf\[3\]\[0\]
*1797 colorbuf\[3\]\[1\]
*1798 colorbuf\[3\]\[2\]
*1799 colorbuf\[3\]\[3\]
*1800 colorbuf\[4\]\[0\]
*1801 colorbuf\[4\]\[1\]
*1802 colorbuf\[4\]\[2\]
*1803 colorbuf\[4\]\[3\]
*1804 colorbuf\[5\]\[0\]
*1805 colorbuf\[5\]\[1\]
*1806 colorbuf\[5\]\[2\]
*1807 colorbuf\[5\]\[3\]
*1808 colorbuf\[6\]\[0\]
*1809 colorbuf\[6\]\[1\]
*1810 colorbuf\[6\]\[2\]
*1811 colorbuf\[6\]\[3\]
*1812 colorbuf\[7\]\[0\]
*1813 colorbuf\[7\]\[1\]
*1814 colorbuf\[7\]\[2\]
*1815 colorbuf\[7\]\[3\]
*1816 counter\[0\]
*1817 counter\[10\]
*1818 counter\[11\]
*1819 counter\[12\]
*1820 counter\[13\]
*1821 counter\[14\]
*1822 counter\[15\]
*1823 counter\[16\]
*1824 counter\[17\]
*1825 counter\[1\]
*1826 counter\[2\]
*1827 counter\[3\]
*1828 counter\[4\]
*1829 counter\[5\]
*1830 counter\[6\]
*1831 counter\[7\]
*1832 counter\[8\]
*1833 counter\[9\]
*1834 led_index\[0\]
*1835 led_index\[1\]
*1836 led_index\[2\]
*1837 led_index\[3\]
*1838 led_index\[4\]
*1839 led_index\[5\]
*1840 led_index\[6\]
*1841 led_index\[7\]
*1842 led_index\[8\]
*1843 lfsr_rng_inst\.lfsr_reg\[0\]
*1844 lfsr_rng_inst\.lfsr_reg\[10\]
*1845 lfsr_rng_inst\.lfsr_reg\[11\]
*1846 lfsr_rng_inst\.lfsr_reg\[12\]
*1847 lfsr_rng_inst\.lfsr_reg\[13\]
*1848 lfsr_rng_inst\.lfsr_reg\[14\]
*1849 lfsr_rng_inst\.lfsr_reg\[15\]
*1850 lfsr_rng_inst\.lfsr_reg\[1\]
*1851 lfsr_rng_inst\.lfsr_reg\[2\]
*1852 lfsr_rng_inst\.lfsr_reg\[3\]
*1853 lfsr_rng_inst\.lfsr_reg\[4\]
*1854 lfsr_rng_inst\.lfsr_reg\[5\]
*1855 lfsr_rng_inst\.lfsr_reg\[6\]
*1856 lfsr_rng_inst\.lfsr_reg\[7\]
*1857 lfsr_rng_inst\.lfsr_reg\[8\]
*1858 lfsr_rng_inst\.lfsr_reg\[9\]
*1859 net1
*1860 net10
*1861 net100
*1862 net101
*1863 net102
*1864 net103
*1865 net104
*1866 net105
*1867 net106
*1868 net107
*1869 net108
*1870 net109
*1871 net110
*1872 net111
*1873 net112
*1874 net113
*1875 net114
*1876 net115
*1877 net116
*1878 net117
*1879 net118
*1880 net119
*1881 net120
*1882 net121
*1883 net122
*1884 net123
*1885 net124
*1886 net125
*1887 net126
*1888 net127
*1889 net128
*1890 net129
*1891 net130
*1892 net131
*1893 net132
*1894 net133
*1895 net134
*1896 net135
*1897 net136
*1898 net137
*1899 net138
*1900 net139
*1901 net140
*1902 net141
*1903 net142
*1904 net143
*1905 net144
*1906 net145
*1907 net146
*1908 net147
*1909 net148
*1910 net149
*1911 net150
*1912 net151
*1913 net152
*1914 net153
*1915 net154
*1916 net155
*1917 net156
*1918 net157
*1919 net158
*1920 net159
*1921 net160
*1922 net161
*1923 net162
*1924 net163
*1925 net164
*1926 net165
*1927 net166
*1928 net167
*1929 net168
*1930 net169
*1931 net170
*1932 net171
*1933 net172
*1934 net173
*1935 net174
*1936 net175
*1937 net176
*1938 net177
*1939 net178
*1940 net179
*1941 net180
*1942 net181
*1943 net182
*1944 net183
*1945 net184
*1946 net185
*1947 net186
*1948 net187
*1949 net188
*1950 net189
*1951 net190
*1952 net191
*1953 net192
*1954 net193
*1955 net194
*1956 net195
*1957 net196
*1958 net197
*1959 net198
*1960 net199
*1961 net2
*1962 net200
*1963 net201
*1964 net202
*1965 net203
*1966 net204
*1967 net205
*1968 net206
*1969 net207
*1970 net208
*1971 net209
*1972 net210
*1973 net211
*1974 net212
*1975 net213
*1976 net214
*1977 net215
*1978 net216
*1979 net217
*1980 net218
*1981 net219
*1982 net220
*1983 net221
*1984 net222
*1985 net223
*1986 net224
*1987 net225
*1988 net226
*1989 net227
*1990 net228
*1991 net229
*1992 net230
*1993 net231
*1994 net232
*1995 net233
*1996 net234
*1997 net235
*1998 net236
*1999 net237
*2000 net238
*2001 net239
*2002 net240
*2003 net241
*2004 net242
*2005 net243
*2006 net244
*2007 net245
*2008 net246
*2009 net247
*2010 net248
*2011 net249
*2012 net250
*2013 net251
*2014 net252
*2015 net253
*2016 net254
*2017 net255
*2018 net256
*2019 net257
*2020 net258
*2021 net259
*2022 net260
*2023 net261
*2024 net262
*2025 net263
*2026 net264
*2027 net265
*2028 net266
*2029 net267
*2030 net268
*2031 net269
*2032 net270
*2033 net271
*2034 net272
*2035 net273
*2036 net274
*2037 net275
*2038 net276
*2039 net277
*2040 net278
*2041 net279
*2042 net280
*2043 net281
*2044 net282
*2045 net283
*2046 net284
*2047 net285
*2048 net286
*2049 net3
*2050 net31
*2051 net32
*2052 net33
*2053 net34
*2054 net35
*2055 net36
*2056 net37
*2057 net38
*2058 net39
*2059 net4
*2060 net40
*2061 net41
*2062 net42
*2063 net43
*2064 net44
*2065 net45
*2066 net46
*2067 net47
*2068 net48
*2069 net49
*2070 net5
*2071 net50
*2072 net51
*2073 net52
*2074 net53
*2075 net54
*2076 net55
*2077 net56
*2078 net57
*2079 net58
*2080 net59
*2081 net6
*2082 net60
*2083 net61
*2084 net62
*2085 net63
*2086 net64
*2087 net65
*2088 net66
*2089 net67
*2090 net68
*2091 net69
*2092 net7
*2093 net70
*2094 net71
*2095 net72
*2096 net73
*2097 net74
*2098 net75
*2099 net76
*2100 net77
*2101 net78
*2102 net79
*2103 net8
*2104 net80
*2105 net81
*2106 net82
*2107 net83
*2108 net84
*2109 net85
*2110 net86
*2111 net87
*2112 net88
*2113 net89
*2114 net9
*2115 net90
*2116 net91
*2117 net92