*SPEF "ieee 1481-1999"
*DESIGN "tt_um_explorer"
*DATE "14:02:44 Monday May 27, 2024"
*VENDOR "The OpenROAD Project"
*PROGRAM "OpenROAD"
*VERSION "da0053d7b0014ab9c87ea148875ff6c2a0f9b658"
*DESIGN_FLOW "NAME_SCOPE LOCAL" "PIN_CAP NONE"
*DIVIDER /
*DELIMITER :
*BUS_DELIMITER []
*T_UNIT 1 NS
*C_UNIT 1 PF
*R_UNIT 1 OHM
*L_UNIT 1 HENRY

*NAME_MAP
*3 clk
*4 ena
*5 rst_n
*6 ui_in[0]
*7 ui_in[1]
*8 ui_in[2]
*9 ui_in[3]
*10 ui_in[4]
*11 ui_in[5]
*12 ui_in[6]
*13 ui_in[7]
*14 uio_in[0]
*15 uio_in[1]
*16 uio_in[2]
*17 uio_in[3]
*18 uio_in[4]
*19 uio_in[5]
*20 uio_in[6]
*21 uio_in[7]
*22 uio_oe[0]
*23 uio_oe[1]
*24 uio_oe[2]
*25 uio_oe[3]
*26 uio_oe[4]
*27 uio_oe[5]
*28 uio_oe[6]
*29 uio_oe[7]
*30 uio_out[0]
*31 uio_out[1]
*32 uio_out[2]
*33 uio_out[3]
*34 uio_out[4]
*35 uio_out[5]
*36 net11
*37 net12
*38 net13
*39 uo_out[1]
*40 net14
*41 uo_out[3]
*42 uo_out[4]
*43 uo_out[5]
*44 net15
*45 net16
*46 _0000_
*47 _0001_
*48 _0002_
*49 _0003_
*50 _0004_
*51 _0005_
*52 _0006_
*53 _0007_
*54 _0008_
*55 _0009_
*56 _0010_
*57 _0011_
*58 _0016_
*59 _0017_
*60 _0018_
*61 _0019_
*62 _0020_
*63 _0021_
*64 _0022_
*65 _0023_
*66 _0024_
*67 _0025_
*68 _0026_
*69 _0027_
*70 _0028_
*71 _0029_
*72 _0030_
*73 _0031_
*74 _0032_
*75 _0033_
*76 _0034_
*77 _0035_
*78 _0036_
*79 _0037_
*80 _0038_
*81 _0039_
*82 _0040_
*83 _0041_
*84 _0042_
*85 _0043_
*86 _0044_
*87 _0045_
*88 _0046_
*89 _0047_
*90 _0048_
*91 _0049_
*92 _0050_
*93 _0051_
*94 _0052_
*95 _0053_
*96 _0054_
*97 _0055_
*98 _0056_
*99 _0057_
*100 _0058_
*101 _0059_
*102 _0060_
*103 _0061_
*104 _0062_
*105 _0063_
*106 _0064_
*107 _0065_
*108 _0066_
*109 _0067_
*110 _0068_
*111 _0069_
*112 _0070_
*113 _0071_
*114 _0072_
*115 _0073_
*116 _0074_
*117 _0075_
*118 _0076_
*119 _0077_
*120 _0078_
*121 _0079_
*122 _0080_
*123 _0081_
*124 _0082_
*125 _0083_
*126 _0084_
*127 _0085_
*128 _0086_
*129 _0087_
*130 _0088_
*131 _0089_
*132 _0090_
*133 _0091_
*134 _0092_
*135 _0093_
*136 _0094_
*137 _0095_
*138 _0096_
*139 _0097_
*140 _0098_
*141 _0099_
*142 _0100_
*143 _0101_
*144 _0102_
*145 _0103_
*146 _0104_
*147 _0105_
*148 _0106_
*149 _0107_
*150 _0108_
*151 _0109_
*152 _0110_
*153 _0111_
*154 _0112_
*155 _0113_
*156 _0114_
*157 _0115_
*158 _0116_
*159 _0117_
*160 _0118_
*161 _0119_
*162 _0120_
*163 _0121_
*164 _0122_
*165 _0123_
*166 _0124_
*167 _0125_
*168 _0126_
*169 _0127_
*170 _0128_
*171 _0129_
*172 _0130_
*173 _0131_
*174 _0132_
*175 _0133_
*176 _0134_
*177 _0135_
*178 _0136_
*179 _0137_
*180 _0138_
*181 _0139_
*182 _0140_
*183 _0141_
*184 _0142_
*185 _0143_
*186 _0144_
*187 _0145_
*188 _0146_
*189 _0147_
*190 _0148_
*191 _0149_
*192 _0150_
*193 _0151_
*194 _0152_
*195 _0153_
*196 _0154_
*197 _0155_
*198 _0156_
*199 _0157_
*200 _0158_
*201 _0159_
*202 _0160_
*203 _0161_
*204 _0162_
*205 _0163_
*206 _0164_
*207 _0165_
*208 _0166_
*209 _0167_
*210 _0168_
*211 _0169_
*212 _0170_
*213 _0171_
*214 _0172_
*215 _0173_
*216 _0174_
*217 _0175_
*218 _0176_
*219 _0177_
*220 _0178_
*221 _0179_
*222 _0180_
*223 _0181_
*224 _0182_
*225 _0183_
*226 _0184_
*227 _0185_
*228 _0186_
*229 _0187_
*230 _0188_
*231 _0189_
*232 _0190_
*233 _0191_
*234 _0192_
*235 _0193_
*236 _0194_
*237 _0195_
*238 _0196_
*239 _0197_
*240 _0198_
*241 _0199_
*242 _0200_
*243 _0201_
*244 _0202_
*245 _0203_
*246 _0204_
*247 _0205_
*248 _0206_
*249 _0207_
*250 _0208_
*251 _0209_
*252 _0210_
*253 _0211_
*254 _0212_
*255 _0213_
*256 _0214_
*257 _0215_
*258 _0216_
*259 _0217_
*260 _0218_
*261 _0219_
*262 _0220_
*263 _0221_
*264 _0222_
*265 _0223_
*266 _0224_
*267 _0225_
*268 _0226_
*269 _0227_
*270 _0228_
*271 _0229_
*272 _0230_
*273 _0231_
*274 _0232_
*275 _0233_
*276 _0234_
*277 _0235_
*278 _0236_
*279 _0237_
*280 _0238_
*281 _0239_
*282 _0240_
*283 _0241_
*284 _0242_
*285 _0243_
*286 _0244_
*287 _0245_
*288 _0246_
*289 _0247_
*290 _0248_
*291 _0249_
*292 _0250_
*293 _0251_
*294 _0252_
*295 _0253_
*296 _0254_
*297 _0255_
*298 _0256_
*299 _0257_
*300 _0258_
*301 _0259_
*302 _0260_
*303 _0261_
*304 _0262_
*305 _0263_
*306 _0264_
*307 _0265_
*308 _0266_
*309 _0267_
*310 _0268_
*311 _0269_
*312 _0270_
*313 _0271_
*314 _0272_
*315 _0273_
*316 _0274_
*317 _0275_
*318 _0276_
*319 _0277_
*320 _0278_
*321 _0279_
*322 _0280_
*323 _0281_
*324 _0282_
*325 _0283_
*326 _0284_
*327 _0285_
*328 _0286_
*329 _0287_
*330 _0288_
*331 _0289_
*332 _0290_
*333 _0291_
*334 _0292_
*335 _0293_
*336 _0294_
*337 _0295_
*338 _0296_
*339 _0297_
*340 _0298_
*341 _0299_
*342 _0300_
*343 _0301_
*344 _0302_
*345 _0303_
*346 _0304_
*347 _0305_
*348 _0306_
*349 _0307_
*350 _0308_
*351 _0309_
*352 _0310_
*353 _0311_
*354 _0312_
*355 _0313_
*356 _0314_
*357 _0315_
*358 _0316_
*359 _0317_
*360 _0318_
*361 _0319_
*362 _0320_
*363 _0321_
*364 _0322_
*365 _0323_
*366 _0324_
*367 _0325_
*368 _0326_
*369 _0327_
*370 _0328_
*371 _0329_
*372 _0330_
*373 _0331_
*374 _0332_
*375 _0333_
*376 _0334_
*377 _0335_
*378 _0336_
*379 _0337_
*380 _0338_
*381 _0339_
*382 _0340_
*383 _0341_
*384 _0342_
*385 _0343_
*386 _0344_
*387 _0345_
*388 _0346_
*389 _0347_
*390 _0348_
*391 _0349_
*392 _0350_
*393 _0351_
*394 _0352_
*395 _0353_
*396 _0354_
*397 _0355_
*398 _0356_
*399 _0357_
*400 _0358_
*401 _0359_
*402 _0360_
*403 _0361_
*404 _0362_
*405 _0363_
*406 _0364_
*407 _0365_
*408 _0366_
*409 _0367_
*410 _0368_
*411 _0369_
*412 _0370_
*413 _0371_
*414 _0372_
*415 _0373_
*416 _0374_
*417 _0375_
*418 _0376_
*419 _0377_
*420 _0378_
*421 _0379_
*422 _0380_
*423 _0381_
*424 _0382_
*425 _0383_
*426 _0384_
*427 _0385_
*428 _0386_
*429 _0387_
*430 _0388_
*431 _0389_
*432 _0390_
*433 _0391_
*434 _0392_
*435 _0393_
*436 _0394_
*437 _0395_
*438 _0396_
*439 _0397_
*440 _0398_
*441 _0399_
*442 _0400_
*443 _0401_
*444 _0402_
*445 _0403_
*446 _0404_
*447 _0405_
*448 _0406_
*449 _0407_
*450 _0408_
*451 _0409_
*452 _0410_
*453 _0411_
*454 _0412_
*455 _0413_
*456 _0414_
*457 _0415_
*458 _0416_
*459 _0417_
*460 _0418_
*461 _0419_
*462 _0420_
*463 _0421_
*464 _0422_
*465 _0423_
*466 _0424_
*467 _0425_
*468 _0426_
*469 _0427_
*470 _0428_
*471 _0429_
*472 _0430_
*473 _0431_
*474 _0432_
*475 _0433_
*476 _0434_
*477 _0435_
*478 _0436_
*479 _0437_
*480 _0438_
*481 _0439_
*482 _0440_
*483 _0441_
*484 _0442_
*485 _0443_
*486 _0444_
*487 _0445_
*488 _0446_
*489 _0447_
*490 _0448_
*491 _0449_
*492 _0450_
*493 _0451_
*494 _0452_
*495 _0453_
*496 _0454_
*497 _0455_
*498 _0456_
*499 _0457_
*500 _0458_
*501 _0459_
*502 _0460_
*503 _0461_
*504 _0462_
*505 _0463_
*506 _0464_
*507 _0465_
*508 _0466_
*509 _0467_
*510 _0468_
*511 _0469_
*512 _0470_
*513 _0471_
*514 _0472_
*515 _0473_
*516 _0474_
*517 _0475_
*518 _0476_
*519 _0477_
*520 _0478_
*521 _0479_
*522 _0480_
*523 _0481_
*524 _0482_
*525 _0483_
*526 _0484_
*527 _0485_
*528 _0486_
*529 _0487_
*530 _0488_
*531 _0489_
*532 _0490_
*533 _0491_
*534 _0492_
*535 _0493_
*536 _0494_
*537 _0495_
*538 _0496_
*539 _0497_
*540 _0498_
*541 _0499_
*542 _0500_
*543 _0501_
*544 _0502_
*545 _0503_
*546 _0504_
*547 _0505_
*548 _0506_
*549 _0507_
*550 _0508_
*551 _0509_
*552 _0510_
*553 _0511_
*554 _0512_
*555 _0513_
*556 _0514_
*557 _0515_
*558 _0516_
*559 _0517_
*560 _0518_
*561 _0519_
*562 _0520_
*563 _0521_
*564 _0522_
*565 _0523_
*566 _0524_
*567 _0525_
*568 _0526_
*569 _0527_
*570 _0528_
*571 _0529_
*572 _0530_
*573 _0531_
*574 _0532_
*575 _0533_
*576 _0534_
*577 _0535_
*578 _0536_
*579 _0537_
*580 _0538_
*581 _0539_
*582 _0540_
*583 _0541_
*584 _0542_
*585 _0543_
*586 _0544_
*587 _0545_
*588 _0546_
*589 _0547_
*590 _0548_
*591 _0549_
*592 _0550_
*593 _0551_
*594 _0552_
*595 _0553_
*596 _0554_
*597 _0555_
*598 _0556_
*599 _0557_
*600 _0558_
*601 _0559_
*602 _0560_
*603 _0561_
*604 _0562_
*605 _0563_
*606 _0564_
*607 _0565_
*608 _0566_
*609 _0567_
*610 _0568_
*611 _0569_
*612 _0570_
*613 _0571_
*614 _0572_
*615 _0573_
*616 _0574_
*617 _0575_
*618 _0576_
*619 _0577_
*620 _0578_
*621 _0579_
*622 _0580_
*623 _0581_
*624 _0582_
*625 _0583_
*626 _0584_
*627 _0585_
*628 _0586_
*629 _0587_
*630 _0588_
*631 _0589_
*632 _0590_
*633 _0591_
*634 _0592_
*635 _0593_
*636 _0594_
*637 _0595_
*638 _0596_
*639 _0597_
*640 _0598_
*641 _0599_
*642 _0600_
*643 _0601_
*644 _0602_
*645 _0603_
*646 _0604_
*647 _0605_
*648 _0606_
*649 _0607_
*650 _0608_
*651 _0609_
*652 _0610_
*653 _0611_
*654 _0612_
*655 _0613_
*656 _0614_
*657 _0615_
*658 _0616_
*659 _0617_
*660 _0618_
*661 _0619_
*662 _0620_
*663 _0621_
*664 _0622_
*665 _0623_
*666 _0624_
*667 _0625_
*668 _0626_
*669 _0627_
*670 _0628_
*671 _0629_
*672 _0630_
*673 _0631_
*674 _0632_
*675 _0633_
*676 _0634_
*677 _0635_
*678 _0636_
*679 _0637_
*680 _0638_
*681 _0639_
*682 _0640_
*683 _0641_
*684 _0642_
*685 _0643_
*686 _0644_
*687 _0645_
*688 _0646_
*689 _0647_
*690 _0648_
*691 _0649_
*692 _0650_
*693 _0651_
*694 _0652_
*695 _0653_
*696 _0654_
*697 _0655_
*698 _0656_
*699 _0657_
*700 _0658_
*701 _0659_
*702 _0660_
*703 _0661_
*704 _0662_
*705 _0663_
*706 _0664_
*707 _0665_
*708 _0666_
*709 _0667_
*710 _0668_
*711 _0669_
*712 _0670_
*713 _0671_
*714 _0672_
*715 _0673_
*716 _0674_
*717 _0675_
*718 _0676_
*719 _0677_
*720 _0678_
*721 _0679_
*722 _0680_
*723 _0681_
*724 _0682_
*725 _0683_
*726 _0684_
*727 _0685_
*728 _0686_
*729 _0687_
*730 _0688_
*731 _0689_
*732 _0690_
*733 _0691_
*734 _0692_
*735 _0693_
*736 _0694_
*737 _0695_
*738 _0696_
*739 _0697_
*740 _0698_
*741 _0699_
*742 _0700_
*743 _0701_
*744 _0702_
*745 _0703_
*746 _0704_
*747 _0705_
*748 _0706_
*749 _0707_
*750 _0708_
*751 _0709_
*752 _0710_
*753 _0711_
*754 _0712_
*755 _0713_
*756 _0714_
*757 _0715_
*758 _0716_
*759 _0717_
*760 _0718_
*761 _0719_
*762 _0720_
*763 _0721_
*764 _0722_
*765 _0723_
*766 _0724_
*767 _0725_
*768 _0726_
*769 _0727_
*770 _0728_
*771 _0729_
*772 _0730_
*773 _0731_
*774 _0732_
*775 _0733_
*776 _0734_
*777 _0735_
*778 _0736_
*779 _0737_
*780 _0738_
*781 _0739_
*782 _0740_
*783 _0741_
*784 _0742_
*785 _0743_
*786 _0744_
*787 _0745_
*788 _0746_
*789 _0747_
*790 _0748_
*791 _0749_
*792 _0750_
*793 _0751_
*794 _0752_
*795 _0753_
*796 _0754_
*797 _0755_
*798 _0756_
*799 _0757_
*800 _0758_
*801 _0759_
*802 _0760_
*803 _0761_
*804 _0762_
*805 _0763_
*806 _0764_
*807 _0765_
*808 _0766_
*809 _0767_
*810 _0768_
*811 _0769_
*812 _0770_
*813 _0771_
*814 _0772_
*815 _0773_
*816 _0774_
*817 _0775_
*818 _0776_
*819 _0777_
*820 _0778_
*821 _0779_
*822 _0780_
*823 _0781_
*824 _0782_
*825 _0783_
*826 _0784_
*827 _0785_
*828 _0786_
*829 _0787_
*830 _0788_
*831 _0789_
*832 _0790_
*833 _0791_
*834 _0792_
*835 _0793_
*836 _0794_
*837 _0795_
*838 _0796_
*839 _0797_
*840 _0798_
*841 _0799_
*842 _0800_
*843 _0801_
*844 _0802_
*845 _0803_
*846 _0804_
*847 _0805_
*848 _0806_
*849 _0807_
*850 _0808_
*851 _0809_
*852 _0810_
*853 _0811_
*854 _0812_
*855 _0813_
*856 _0814_
*857 _0815_
*858 _0816_
*859 _0817_
*860 _0818_
*861 _0819_
*862 _0820_
*863 _0821_
*864 _0822_
*865 _0823_
*866 _0824_
*867 _0825_
*868 _0826_
*869 _0827_
*870 _0828_
*871 _0829_
*872 _0830_
*873 _0831_
*874 _0832_
*875 _0833_
*876 _0834_
*877 _0835_
*878 _0836_
*879 _0837_
*880 _0838_
*881 _0839_
*882 _0840_
*883 _0841_
*884 _0842_
*885 _0843_
*886 _0844_
*887 _0845_
*888 _0846_
*889 _0847_
*890 _0848_
*891 _0849_
*892 _0850_
*893 _0851_
*894 _0852_
*895 _0853_
*896 _0854_
*897 _0855_
*898 _0856_
*899 _0857_
*900 _0858_
*901 _0859_
*902 _0860_
*903 _0861_
*904 _0862_
*905 _0863_
*906 _0864_
*907 _0865_
*908 _0866_
*909 _0867_
*910 _0868_
*911 _0869_
*912 _0870_
*913 _0871_
*914 _0872_
*915 _0873_
*916 _0874_
*917 _0875_
*918 _0876_
*919 _0877_
*920 _0878_
*921 _0879_
*922 _0880_
*923 _0881_
*924 _0882_
*925 _0883_
*926 _0884_
*927 _0885_
*928 _0886_
*929 _0887_
*930 _0888_
*931 _0889_
*932 _0890_
*933 _0891_
*934 _0892_
*935 _0893_
*936 _0894_
*937 _0895_
*938 _0896_
*939 _0897_
*940 _0898_
*941 _0899_
*942 _0900_
*943 _0901_
*944 _0902_
*945 _0903_
*946 _0904_
*947 _0905_
*948 _0906_
*949 _0907_
*950 _0908_
*951 _0909_
*952 _0910_
*953 _0911_
*954 _0912_
*955 _0913_
*956 _0914_
*957 _0915_
*958 _0916_
*959 _0917_
*960 _0918_
*961 _0919_
*962 _0920_
*963 _0921_
*964 _0922_
*965 _0923_
*966 _0924_
*967 _0925_
*968 _0926_
*969 _0927_
*970 _0928_
*971 _0929_
*972 _0930_
*973 _0931_
*974 _0932_
*975 _0933_
*976 _0934_
*977 _0935_
*978 _0936_
*979 _0937_
*980 _0938_
*981 _0939_
*982 _0940_
*983 _0941_
*984 _0942_
*985 _0943_
*986 _0944_
*987 _0945_
*988 _0946_
*989 _0947_
*990 _0948_
*991 _0949_
*992 _0950_
*993 _0951_
*994 _0952_
*995 _0953_
*996 _0954_
*997 _0955_
*998 _0956_
*999 _0957_
*1000 _0958_
*1001 _0959_
*1002 _0960_
*1003 _0961_
*1004 _0962_
*1005 _0963_
*1006 _0964_
*1007 _0965_
*1008 _0966_
*1009 _0967_
*1010 _0968_
*1011 _0969_
*1012 _0970_
*1013 _0971_
*1014 _0972_
*1015 _0973_
*1016 _0974_
*1017 _0975_
*1018 _0976_
*1019 _0977_
*1020 _0978_
*1021 _0979_
*1022 _0980_
*1023 _0981_
*1024 _0982_
*1025 _0983_
*1026 _0984_
*1027 _0985_
*1028 _0986_
*1029 _0987_
*1030 _0988_
*1031 _0989_
*1032 _0990_
*1033 _0991_
*1034 _0992_
*1035 _0993_
*1036 _0994_
*1037 _0995_
*1038 _0996_
*1039 _0997_
*1040 _0998_
*1041 _0999_
*1042 _1000_
*1043 _1001_
*1044 _1002_
*1045 _1003_
*1046 _1004_
*1047 _1005_
*1048 _1006_
*1049 _1007_
*1050 _1008_
*1051 _1009_
*1052 _1010_
*1053 _1011_
*1054 _1012_
*1055 _1013_
*1056 _1014_
*1057 _1015_
*1058 _1016_
*1059 _1017_
*1060 _1018_
*1061 _1019_
*1062 _1020_
*1063 _1021_
*1064 _1022_
*1065 _1023_
*1066 _1024_
*1067 _1025_
*1068 _1026_
*1069 _1027_
*1070 _1028_
*1071 _1029_
*1072 _1030_
*1073 _1031_
*1074 _1032_
*1075 _1033_
*1076 _1034_
*1077 _1035_
*1078 _1036_
*1079 _1037_
*1080 _1038_
*1081 _1039_
*1082 _1040_
*1083 _1041_
*1084 _1042_
*1085 _1043_
*1086 _1044_
*1087 _1045_
*1088 _1046_
*1089 _1047_
*1090 _1048_
*1091 _1049_
*1092 _1050_
*1093 _1051_
*1094 _1052_
*1095 _1053_
*1096 _1054_
*1097 _1055_
*1098 _1056_
*1099 _1057_
*1100 _1058_
*1101 _1059_
*1102 _1060_
*1103 _1061_
*1104 _1062_
*1105 _1063_
*1106 _1064_
*1107 _1065_
*1108 _1066_
*1109 _1067_
*1110 _1068_
*1111 _1069_
*1112 _1070_
*1113 _1071_
*1114 _1072_
*1115 _1073_
*1116 _1074_
*1117 _1075_
*1118 _1076_
*1119 _1077_
*1120 _1078_
*1121 _1079_
*1122 _1080_
*1123 _1081_
*1124 _1082_
*1125 _1083_
*1126 _1084_
*1127 _1085_
*1128 _1086_
*1129 _1087_
*1130 _1088_
*1131 _1089_
*1132 _1090_
*1133 _1091_
*1134 _1092_
*1135 _1093_
*1136 _1094_
*1137 _1095_
*1138 _1096_
*1139 _1097_
*1140 _1098_
*1141 _1099_
*1142 _1100_
*1143 _1101_
*1144 _1102_
*1145 _1103_
*1146 _1104_
*1147 _1105_
*1148 _1106_
*1149 _1107_
*1150 _1108_
*1151 _1109_
*1152 _1110_
*1153 _1111_
*1154 _1112_
*1155 _1113_
*1156 _1114_
*1157 _1115_
*1158 _1116_
*1159 _1117_
*1160 _1118_
*1161 _1119_
*1162 _1120_
*1163 _1121_
*1164 _1122_
*1165 _1123_
*1166 _1124_
*1167 _1125_
*1168 _1126_
*1169 _1127_
*1170 _1128_
*1171 _1129_
*1172 _1130_
*1173 _1131_
*1174 _1132_
*1175 _1133_
*1176 _1134_
*1177 _1135_
*1178 _1136_
*1179 _1137_
*1180 _1138_
*1181 _1139_
*1182 _1140_
*1183 _1141_
*1184 _1142_
*1185 _1143_
*1186 _1144_
*1187 _1145_
*1188 _1146_
*1189 _1147_
*1190 _1148_
*1191 _1149_
*1192 _1150_
*1193 _1151_
*1194 _1152_
*1195 _1153_
*1196 _1154_
*1197 _1155_
*1198 _1156_
*1199 _1157_
*1200 _1158_
*1201 _1159_
*1202 _1160_
*1203 _1161_
*1204 _1162_
*1205 _1163_
*1206 _1164_
*1207 _1165_
*1208 _1166_
*1209 _1167_
*1210 _1168_
*1211 _1169_
*1212 _1170_
*1213 _1171_
*1214 _1172_
*1215 _1173_
*1216 _1174_
*1217 _1175_
*1218 _1176_
*1219 _1177_
*1220 _1178_
*1221 _1179_
*1222 _1180_
*1223 _1181_
*1224 _1182_
*1225 _1183_
*1226 _1184_
*1227 _1185_
*1228 _1186_
*1229 _1187_
*1230 _1188_
*1231 _1189_
*1232 _1190_
*1233 _1191_
*1234 _1192_
*1235 _1193_
*1236 _1194_
*1237 _1195_
*1238 _1196_
*1239 _1197_
*1240 _1198_
*1241 _1199_
*1242 _1200_
*1243 _1201_
*1244 _1202_
*1245 _1203_
*1246 _1204_
*1247 _1205_
*1248 _1206_
*1249 _1207_
*1250 _1208_
*1251 _1209_
*1252 _1210_
*1253 _1211_
*1254 _1212_
*1255 _1213_
*1256 _1214_
*1257 _1215_
*1258 _1216_
*1259 _1217_
*1260 _1218_
*1261 _1219_
*1262 _1220_
*1263 _1221_
*1264 _1222_
*1265 _1223_
*1266 _1224_
*1267 _1225_
*1268 _1226_
*1269 _1227_
*1270 _1228_
*1271 _1229_
*1272 _1230_
*1273 _1231_
*1274 _1232_
*1275 _1233_
*1276 _1234_
*1277 _1235_
*1278 _1236_
*1279 _1237_
*1280 _1238_
*1281 _1239_
*1282 _1240_
*1283 _1241_
*1284 _1242_
*1285 _1243_
*1286 _1244_
*1287 _1245_
*1288 _1246_
*1289 _1247_
*1290 _1248_
*1291 _1249_
*1292 _1250_
*1293 _1251_
*1294 _1252_
*1295 _1253_
*1296 _1254_
*1297 _1255_
*1298 _1256_
*1299 _1257_
*1300 _1258_
*1301 _1259_
*1302 _1260_
*1303 _1261_
*1304 _1262_
*1305 _1263_
*1306 _1264_
*1307 _1265_
*1308 _1266_
*1309 _1267_
*1310 _1268_
*1311 _1269_
*1312 _1270_
*1313 _1271_
*1314 _1272_
*1315 _1273_
*1316 _1274_
*1317 _1275_
*1318 _1276_
*1319 _1277_
*1320 _1278_
*1321 _1279_
*1322 _1280_
*1323 _1281_
*1324 _1282_
*1325 _1283_
*1326 _1284_
*1327 _1285_
*1328 _1286_
*1329 _1287_
*1330 _1288_
*1331 _1289_
*1332 _1290_
*1333 _1291_
*1334 _1292_
*1335 _1293_
*1336 _1294_
*1337 _1295_
*1338 _1296_
*1339 _1297_
*1340 _1298_
*1341 _1299_
*1342 _1300_
*1343 _1301_
*1344 _1302_
*1345 _1303_
*1346 _1304_
*1347 _1305_
*1348 _1306_
*1349 _1307_
*1350 _1308_
*1351 _1309_
*1352 _1310_
*1353 _1311_
*1354 _1312_
*1355 _1313_
*1356 _1314_
*1357 _1315_
*1358 _1316_
*1359 _1317_
*1360 _1318_
*1361 _1319_
*1362 _1320_
*1363 _1321_
*1364 _1322_
*1365 _1323_
*1366 _1324_
*1367 _1325_
*1368 _1326_
*1369 _1327_
*1370 _1328_
*1371 _1329_
*1372 _1330_
*1373 _1331_
*1374 _1332_
*1375 _1333_
*1376 _1334_
*1377 _1335_
*1378 _1336_
*1379 _1337_
*1380 _1338_
*1381 _1339_
*1382 _1340_
*1383 _1341_
*1384 _1342_
*1385 _1343_
*1386 _1344_
*1387 _1345_
*1388 _1346_
*1389 _1347_
*1390 _1348_
*1391 _1349_
*1392 _1350_
*1393 _1351_
*1394 _1352_
*1395 _1353_
*1396 _1354_
*1397 _1355_
*1398 _1356_
*1399 _1357_
*1400 _1358_
*1401 _1359_
*1402 _1360_
*1403 _1361_
*1404 _1362_
*1405 _1363_
*1406 _1364_
*1407 _1365_
*1408 _1366_
*1409 _1367_
*1410 _1368_
*1411 _1369_
*1412 _1370_
*1413 _1371_
*1414 _1372_
*1415 _1373_
*1416 _1374_
*1417 _1375_
*1418 _1376_
*1419 _1377_
*1420 _1378_
*1421 _1379_
*1422 _1380_
*1423 _1381_
*1424 _1382_
*1425 _1383_
*1426 _1384_
*1427 _1385_
*1428 _1386_
*1429 _1387_
*1430 _1388_
*1431 _1389_
*1432 _1390_
*1433 _1391_
*1434 _1392_
*1435 _1393_
*1436 _1394_
*1437 _1395_
*1438 _1396_
*1439 _1397_
*1440 _1398_
*1441 _1399_
*1442 _1400_
*1443 _1401_
*1444 _1402_
*1445 _1403_
*1446 _1404_
*1447 _1405_
*1448 _1406_
*1449 _1407_
*1450 _1408_
*1451 _1409_
*1452 _1410_
*1453 _1411_
*1454 _1412_
*1455 _1413_
*1456 _1414_
*1457 _1415_
*1458 _1416_
*1459 _1417_
*1460 _1418_
*1461 _1419_
*1462 _1420_
*1463 _1421_
*1464 _1422_
*1465 _1423_
*1466 _1424_
*1467 _1425_
*1468 _1426_
*1469 _1427_
*1470 _1428_
*1471 _1429_
*1472 _1430_
*1473 _1431_
*1474 _1432_
*1475 _1433_
*1476 _1434_
*1477 _1435_
*1478 _1436_
*1479 _1437_
*1480 _1438_
*1481 _1439_
*1482 _1440_
*1483 _1441_
*1484 _1442_
*1485 _1443_
*1486 _1444_
*1487 _1445_
*1488 _1446_
*1489 _1447_
*1490 _1448_
*1491 _1449_
*1492 _1450_
*1493 _1451_
*1494 _1452_
*1495 _1453_
*1496 _1454_
*1497 _1455_
*1498 _1456_
*1499 _1457_
*1500 _1458_
*1501 _1459_
*1502 _1460_
*1503 _1461_
*1504 _1462_
*1505 _1463_
*1506 _1464_
*1507 _1465_
*1508 _1466_
*1509 _1467_
*1510 _1468_
*1511 _1469_
*1512 _1470_
*1513 _1471_
*1514 _1472_
*1515 _1473_
*1516 _1474_
*1517 _1475_
*1518 _1476_
*1519 _1477_
*1520 _1478_
*1521 _1479_
*1522 _1480_
*1523 _1481_
*1524 _1482_
*1525 _1483_
*1526 _1484_
*1527 _1485_
*1528 _1486_
*1529 _1487_
*1530 _1488_
*1531 _1489_
*1532 _1490_
*1533 _1491_
*1534 _1492_
*1535 _1493_
*1536 _1494_
*1537 _1495_
*1538 _1496_
*1539 _1497_
*1540 _1498_
*1541 _1499_
*1542 _1500_
*1543 _1501_
*1544 _1502_
*1545 _1503_
*1546 _1504_
*1547 _1505_
*1548 _1506_
*1549 _1507_
*1550 _1508_
*1551 _1509_
*1552 _1510_
*1553 _1511_
*1554 _1512_
*1555 _1513_
*1556 _1514_
*1557 _1515_
*1558 _1516_
*1559 _1517_
*1560 _1518_
*1561 _1519_
*1562 _1520_
*1563 _1521_
*1564 _1522_
*1565 _1523_
*1566 _1524_
*1567 _1525_
*1568 _1526_
*1569 _1527_
*1570 _1528_
*1571 _1529_
*1572 _1530_
*1573 _1531_
*1574 _1532_
*1575 _1533_
*1576 _1534_
*1577 _1535_
*1578 _1536_
*1579 _1537_
*1580 _1538_
*1581 _1539_
*1582 _1540_
*1583 _1541_
*1584 _1542_
*1585 _1543_
*1586 _1544_
*1587 _1545_
*1588 _1546_
*1589 _1547_
*1590 _1548_
*1591 _1549_
*1592 _1550_
*1593 _1551_
*1594 _1552_
*1595 _1553_
*1596 _1554_
*1597 _1555_
*1598 _1556_
*1599 _1557_
*1600 _1558_
*1601 _1559_
*1602 _1560_
*1603 _1561_
*1604 _1562_
*1605 _1563_
*1606 _1564_
*1607 _1565_
*1608 _1566_
*1609 _1567_
*1610 _1568_
*1611 _1569_
*1612 _1570_
*1613 _1571_
*1614 _1572_
*1615 _1573_
*1616 _1574_
*1617 _1575_
*1618 _1576_
*1619 _1577_
*1620 _1578_
*1621 _1579_
*1622 _1580_
*1623 _1581_
*1624 _1582_
*1625 _1583_
*1626 _1584_
*1627 _1585_
*1628 _1586_
*1629 _1587_
*1630 _1588_
*1631 _1589_
*1632 _1590_
*1633 _1591_
*1634 _1592_
*1635 _1593_
*1636 _1594_
*1637 _1595_
*1638 _1596_
*1639 _1597_
*1640 _1598_
*1641 _1599_
*1642 _1600_
*1643 _1601_
*1644 _1602_
*1645 _1603_
*1646 _1604_
*1647 _1605_
*1648 _1606_
*1649 _1607_
*1650 _1608_
*1651 _1609_
*1652 _1610_
*1653 _1611_
*1654 _1612_
*1655 _1613_
*1656 _1614_
*1657 _1615_
*1658 _1616_
*1659 _1617_
*1660 _1618_
*1661 _1619_
*1662 _1620_
*1663 _1621_
*1664 _1622_
*1665 _1623_
*1666 _1624_
*1667 _1625_
*1668 _1626_
*1669 _1627_
*1670 _1628_
*1671 _1629_
*1672 _1630_
*1673 _1631_
*1674 _1632_
*1675 _1633_
*1676 _1634_
*1677 _1635_
*1678 _1636_
*1679 _1637_
*1680 _1638_
*1681 _1639_
*1682 _1640_
*1683 _1641_
*1684 _1642_
*1685 _1643_
*1686 _1644_
*1687 _1645_
*1688 _1646_
*1689 _1647_
*1690 _1648_
*1691 _1649_
*1692 _1650_
*1693 _1651_
*1694 _1652_
*1695 _1653_
*1696 _1654_
*1697 _1655_
*1698 _1656_
*1699 _1657_
*1700 _1658_
*1701 _1659_
*1702 _1660_
*1703 _1661_
*1704 _1662_
*1705 _1663_
*1706 _1664_
*1707 _1665_
*1708 _1666_
*1709 _1667_
*1710 _1668_
*1711 _1669_
*1712 _1670_
*1713 _1671_
*1714 _1672_
*1715 _1673_
*1716 _1674_
*1717 _1675_
*1718 _1676_
*1719 _1677_
*1720 _1678_
*1721 _1679_
*1722 _1680_
*1723 _1681_
*1724 _1682_
*1725 _1683_
*1726 _1684_
*1727 _1685_
*1728 _1686_
*1729 _1687_
*1730 _1688_
*1731 _1689_
*1732 _1690_
*1733 _1691_
*1734 _1692_
*1735 _1693_
*1736 _1694_
*1737 _1695_
*1738 _1696_
*1739 _1697_
*1740 _1698_
*1741 _1699_
*1742 _1700_
*1743 _1701_
*1744 _1702_
*1745 _1703_
*1746 _1704_
*1747 _1705_
*1748 _1706_
*1749 _1707_
*1750 _1708_
*1751 _1709_
*1752 _1710_
*1753 _1711_
*1754 _1712_
*1755 _1713_
*1756 _1714_
*1757 _1715_
*1758 _1716_
*1759 _1717_
*1760 _1718_
*1761 _1719_
*1762 _1720_
*1763 _1721_
*1764 _1722_
*1765 _1723_
*1766 _1724_
*1767 _1725_
*1768 _1726_
*1769 _1727_
*1770 _1728_
*1771 _1729_
*1772 _1730_
*1773 _1731_
*1774 _1732_
*1775 _1733_
*1776 _1734_
*1777 _1735_
*1778 _1736_
*1779 _1737_
*1780 _1738_
*1781 _1739_
*1782 _1740_
*1783 _1741_
*1784 _1742_
*1785 _1743_
*1786 _1744_
*1787 _1745_
*1788 _1746_
*1789 _1747_
*1790 _1748_
*1791 _1749_
*1792 _1750_
*1793 _1751_
*1794 _1752_
*1795 _1753_
*1796 _1754_
*1797 _1755_
*1798 _1756_
*1799 _1757_
*1800 _1758_
*1801 _1759_
*1802 _1760_
*1803 _1761_
*1804 _1762_
*1805 _1763_
*1806 _1764_
*1807 _1765_
*1808 _1766_
*1809 _1767_
*1810 _1768_
*1811 _1769_
*1812 _1770_
*1813 _1771_
*1814 _1772_
*1815 _1773_
*1816 clknet_0_clk
*1817 clknet_2_0__leaf_clk
*1818 clknet_2_1__leaf_clk
*1819 clknet_2_2__leaf_clk
*1820 clknet_2_3__leaf_clk
*1821 clknet_leaf_0_clk
*1822 clknet_leaf_10_clk
*1823 clknet_leaf_11_clk
*1824 clknet_leaf_12_clk
*1825 clknet_leaf_13_clk
*1826 clknet_leaf_14_clk
*1827 clknet_leaf_15_clk
*1828 clknet_leaf_16_clk
*1829 clknet_leaf_17_clk
*1830 clknet_leaf_18_clk
*1831 clknet_leaf_19_clk
*1832 clknet_leaf_1_clk
*1833 clknet_leaf_20_clk
*1834 clknet_leaf_21_clk
*1835 clknet_leaf_22_clk
*1836 clknet_leaf_23_clk
*1837 clknet_leaf_24_clk
*1838 clknet_leaf_25_clk
*1839 clknet_leaf_26_clk
*1840 clknet_leaf_27_clk
*1841 clknet_leaf_28_clk
*1842 clknet_leaf_29_clk
*1843 clknet_leaf_2_clk
*1844 clknet_leaf_30_clk
*1845 clknet_leaf_31_clk
*1846 clknet_leaf_3_clk
*1847 clknet_leaf_4_clk
*1848 clknet_leaf_5_clk
*1849 clknet_leaf_6_clk
*1850 clknet_leaf_7_clk
*1851 clknet_leaf_8_clk
*1852 clknet_leaf_9_clk
*1853 main\._d_busy\[31\]
*1854 main\._q_busy\[10\]
*1855 main\._q_busy\[11\]
*1856 main\._q_busy\[12\]
*1857 main\._q_busy\[13\]
*1858 main\._q_busy\[14\]
*1859 main\._q_busy\[15\]
*1860 main\._q_busy\[16\]
*1861 main\._q_busy\[17\]
*1862 main\._q_busy\[18\]
*1863 main\._q_busy\[19\]
*1864 main\._q_busy\[1\]
*1865 main\._q_busy\[20\]
*1866 main\._q_busy\[21\]
*1867 main\._q_busy\[22\]
*1868 main\._q_busy\[23\]
*1869 main\._q_busy\[24\]
*1870 main\._q_busy\[25\]
*1871 main\._q_busy\[26\]
*1872 main\._q_busy\[27\]
*1873 main\._q_busy\[28\]
*1874 main\._q_busy\[29\]
*1875 main\._q_busy\[2\]
*1876 main\._q_busy\[30\]
*1877 main\._q_busy\[31\]
*1878 main\._q_busy\[3\]
*1879 main\._q_busy\[4\]
*1880 main\._q_busy\[5\]
*1881 main\._q_busy\[6\]
*1882 main\._q_busy\[7\]
*1883 main\._q_busy\[8\]
*1884 main\._q_busy\[9\]
*1885 main\._q_pixel_do_send\[0\]
*1886 main\._q_pixel_do_send\[10\]
*1887 main\._q_pixel_do_send\[11\]
*1888 main\._q_pixel_do_send\[12\]
*1889 main\._q_pixel_do_send\[13\]
*1890 main\._q_pixel_do_send\[14\]
*1891 main\._q_pixel_do_send\[15\]
*1892 main\._q_pixel_do_send\[1\]
*1893 main\._q_pixel_do_send\[2\]
*1894 main\._q_pixel_do_send\[3\]
*1895 main\._q_pixel_do_send\[4\]
*1896 main\._q_pixel_do_send\[5\]
*1897 main\._q_pixel_do_send\[6\]
*1898 main\._q_pixel_do_send\[7\]
*1899 main\._q_pixel_do_send\[8\]
*1900 main\._q_pixel_do_send\[9\]
*1901 main\._q_pixel_to_send\[0\]
*1902 main\._q_pixel_to_send\[1\]
*1903 main\._q_pixel_to_send\[2\]
*1904 main\._q_pixel_to_send\[3\]
*1905 main\._q_pixel_to_send\[4\]
*1906 main\._q_pixel_to_send\[5\]
*1907 main\._q_pixel_to_send\[6\]
*1908 main\._q_pixel_to_send\[7\]
*1909 main\._t_screen_resn
*1910 main\._w_display_spi_clk
*1911 main\._w_display_spi_dc
*1912 main\._w_display_spi_mosi
*1913 main\._w_sb_io_unnamed_0_pin
*1914 main\._w_sb_io_unnamed_1_pin
*1915 main\._w_sb_io_unnamed_2_pin
*1916 main\._w_sb_io_unnamed_3_pin
*1917 main\._w_terrain_pixel_data\[0\]
*1918 main\._w_terrain_pixel_data\[10\]
*1919 main\._w_terrain_pixel_data\[11\]
*1920 main\._w_terrain_pixel_data\[12\]
*1921 main\._w_terrain_pixel_data\[13\]
*1922 main\._w_terrain_pixel_data\[14\]
*1923 main\._w_terrain_pixel_data\[15\]
*1924 main\._w_terrain_pixel_data\[1\]
*1925 main\._w_terrain_pixel_data\[2\]
*1926 main\._w_terrain_pixel_data\[3\]
*1927 main\._w_terrain_pixel_data\[4\]
*1928 main\._w_terrain_pixel_data\[5\]
*1929 main\._w_terrain_pixel_data\[6\]
*1930 main\._w_terrain_pixel_data\[7\]
*1931 main\._w_terrain_pixel_data\[8\]
*1932 main\._w_terrain_pixel_data\[9\]
*1933 main\._w_terrain_ram_clk
*1934 main\._w_terrain_ram_csn
*1935 main\._w_terrain_screen_send
*1936 main\.display\._d_spi_clk
*1937 main\.display\._d_spi_dc
*1938 main\.display\._q_busy\[0\]
*1939 main\.display\._q_busy\[1\]
*1940 main\.display\._q_busy\[2\]
*1941 main\.display\._q_busy\[3\]
*1942 main\.display\._q_busy\[4\]
*1943 main\.display\._q_busy\[5\]
*1944 main\.display\._q_busy\[6\]
*1945 main\.display\._q_busy\[7\]
*1946 main\.display\._q_busy\[8\]
*1947 main\.display\._q_osc\[0\]
*1948 main\.display\._q_osc\[1\]
*1949 main\.display\._q_sending\[0\]
*1950 main\.display\._q_sending\[1\]
*1951 main\.display\._q_sending\[2\]
*1952 main\.display\._q_sending\[3\]
*1953 main\.display\._q_sending\[4\]
*1954 main\.display\._q_sending\[5\]
*1955 main\.display\._q_sending\[6\]
*1956 main\.display\._q_sending\[7\]
*1957 main\.display\._q_sending\[8\]
*1958 main\.inout_ram_io0_o
*1959 main\.inout_ram_io0_oe
*1960 main\.inout_ram_io1_o
*1961 main\.inout_ram_io2_o
*1962 main\.inout_ram_io3_o
*1963 main\.terrain\._autorun
*1964 main\.terrain\._d__ram_addr\[0\]
*1965 main\.terrain\._d__ram_addr\[10\]
*1966 main\.terrain\._d__ram_addr\[11\]
*1967 main\.terrain\._d__ram_addr\[12\]
*1968 main\.terrain\._d__ram_addr\[13\]
*1969 main\.terrain\._d__ram_addr\[14\]
*1970 main\.terrain\._d__ram_addr\[15\]
*1971 main\.terrain\._d__ram_addr\[16\]
*1972 main\.terrain\._d__ram_addr\[17\]
*1973 main\.terrain\._d__ram_addr\[18\]
*1974 main\.terrain\._d__ram_addr\[19\]
*1975 main\.terrain\._d__ram_addr\[1\]
*1976 main\.terrain\._d__ram_addr\[20\]
*1977 main\.terrain\._d__ram_addr\[21\]
*1978 main\.terrain\._d__ram_addr\[22\]
*1979 main\.terrain\._d__ram_addr\[23\]
*1980 main\.terrain\._d__ram_addr\[2\]
*1981 main\.terrain\._d__ram_addr\[3\]
*1982 main\.terrain\._d__ram_addr\[4\]
*1983 main\.terrain\._d__ram_addr\[5\]
*1984 main\.terrain\._d__ram_addr\[6\]
*1985 main\.terrain\._d__ram_addr\[7\]
*1986 main\.terrain\._d__ram_addr\[8\]
*1987 main\.terrain\._d__ram_addr\[9\]
*1988 main\.terrain\._q___block_12_cnt\[0\]
*1989 main\.terrain\._q___block_12_cnt\[1\]
*1990 main\.terrain\._q___block_12_cnt\[2\]
*1991 main\.terrain\._q___block_12_cnt\[3\]
*1992 main\.terrain\._q___block_12_cnt\[4\]
*1993 main\.terrain\._q___block_12_cnt\[5\]
*1994 main\.terrain\._q___block_12_cnt\[6\]
*1995 main\.terrain\._q___block_12_cnt\[7\]
*1996 main\.terrain\._q___block_12_cnt\[8\]
*1997 main\.terrain\._q___block_12_cnt\[9\]
*1998 main\.terrain\._q___block_29_x\[0\]
*1999 main\.terrain\._q___block_29_x\[1\]
*2000 main\.terrain\._q___block_29_x\[2\]
*2001 main\.terrain\._q___block_29_x\[3\]
*2002 main\.terrain\._q___block_29_x\[4\]
*2003 main\.terrain\._q___block_29_x\[5\]
*2004 main\.terrain\._q___block_29_x\[6\]
*2005 main\.terrain\._q___block_29_x\[7\]
*2006 main\.terrain\._q___block_29_x\[8\]
*2007 main\.terrain\._q___block_29_x\[9\]
*2008 main\.terrain\._q___block_33_iz\[0\]
*2009 main\.terrain\._q___block_33_iz\[1\]
*2010 main\.terrain\._q___block_33_iz\[2\]
*2011 main\.terrain\._q___block_33_iz\[3\]
*2012 main\.terrain\._q___block_33_iz\[4\]
*2013 main\.terrain\._q___block_33_iz\[5\]
*2014 main\.terrain\._q___block_33_iz\[6\]
*2015 main\.terrain\._q___block_33_iz\[7\]
*2016 main\.terrain\._q___block_33_iz\[8\]
*2017 main\.terrain\._q___block_33_y_last\[0\]
*2018 main\.terrain\._q___block_33_y_last\[1\]
*2019 main\.terrain\._q___block_33_y_last\[2\]
*2020 main\.terrain\._q___block_33_y_last\[3\]
*2021 main\.terrain\._q___block_33_y_last\[4\]
*2022 main\.terrain\._q___block_33_y_last\[5\]
*2023 main\.terrain\._q___block_33_y_last\[6\]
*2024 main\.terrain\._q___block_33_y_last\[7\]