*SPEF "ieee 1481-1999"
*DESIGN "tt_um_wokwi_397140982440144897"
*DATE "12:16:04 Tuesday May 07, 2024"
*VENDOR "The OpenROAD Project"
*PROGRAM "OpenROAD"
*VERSION "da0053d7b0014ab9c87ea148875ff6c2a0f9b658"
*DESIGN_FLOW "NAME_SCOPE LOCAL" "PIN_CAP NONE"
*DIVIDER /
*DELIMITER :
*BUS_DELIMITER []
*T_UNIT 1 NS
*C_UNIT 1 PF
*R_UNIT 1 OHM
*L_UNIT 1 HENRY

*NAME_MAP
*3 clk
*4 ena
*5 rst_n
*6 ui_in[0]
*7 ui_in[1]
*8 ui_in[2]
*9 ui_in[3]
*10 ui_in[4]
*11 ui_in[5]
*12 ui_in[6]
*13 ui_in[7]
*14 uio_in[0]
*15 uio_in[1]
*16 uio_in[2]
*17 uio_in[3]
*18 uio_in[4]
*19 uio_in[5]
*20 uio_in[6]
*21 uio_in[7]
*22 net8
*23 net9
*24 net10
*25 net11
*26 net12
*27 net13
*28 net14
*29 net15
*30 net16
*31 net17
*32 net18
*33 net19
*34 net20
*35 net21
*36 net22
*37 net23
*38 uo_out[0]
*39 uo_out[1]
*40 uo_out[2]
*41 uo_out[3]
*42 uo_out[4]
*43 uo_out[5]
*44 uo_out[6]
*45 net24
*46 _00_
*47 _01_
*48 _02_
*49 _03_
*50 _04_
*51 _05_
*52 _06_
*53 _07_
*54 _08_
*55 _09_
*56 _10_
*57 _11_
*58 _12_
*59 _13_
*60 _14_
*61 _15_
*62 _16_
*63 _17_
*64 _18_
*65 _19_
*66 _20_
*67 _21_
*68 _22_
*69 _23_
*70 _24_
*71 _25_
*72 _26_
*73 _27_
*74 and1\.a
*75 and1\.b
*76 and2\.a
*77 clknet_0_clk
*78 clknet_1_0__leaf_clk
*79 clknet_1_1__leaf_clk
*80 flipflop4\.d
*81 flipflop7\.d
*82 flipflop8\.d
*83 flipflop9\.d
*84 flipflop9\.q
*85 gate103\.out
*86 gate112\.out
*87 gate114\.out
*88 gate116\.out
*89 gate75\.out
*90 gate80\.out
*91 gate94\.out
*92 net1
*93 net2
*94 net25
*95 net3
*96 net4
*97 net5
*98 net6
*99 net7
*100 FILLER_0_0_109
*101 FILLER_0_0_113
*102 FILLER_0_0_125
*103 FILLER_0_0_137
*104 FILLER_0_0_141
*105 FILLER_0_0_15
*106 FILLER_0_0_153
*107 FILLER_0_0_165
*108 FILLER_0_0_169
*109 FILLER_0_0_181
*110 FILLER_0_0_193
*111 FILLER_0_0_197
*112 FILLER_0_0_209
*113 FILLER_0_0_221
*114 FILLER_0_0_225
*115 FILLER_0_0_237
*116 FILLER_0_0_249
*117 FILLER_0_0_253
*118 FILLER_0_0_265
*119 FILLER_0_0_27
*120 FILLER_0_0_277
*121 FILLER_0_0_281
*122 FILLER_0_0_29
*123 FILLER_0_0_293
*124 FILLER_0_0_3
*125 FILLER_0_0_305
*126 FILLER_0_0_309
*127 FILLER_0_0_321
*128 FILLER_0_0_333
*129 FILLER_0_0_41
*130 FILLER_0_0_53
*131 FILLER_0_0_57
*132 FILLER_0_0_69
*133 FILLER_0_0_81
*134 FILLER_0_0_85
*135 FILLER_0_0_97
*136 FILLER_0_10_109
*137 FILLER_0_10_121
*138 FILLER_0_10_133
*139 FILLER_0_10_139
*140 FILLER_0_10_141
*141 FILLER_0_10_15
*142 FILLER_0_10_153
*143 FILLER_0_10_165
*144 FILLER_0_10_177
*145 FILLER_0_10_189
*146 FILLER_0_10_195
*147 FILLER_0_10_197
*148 FILLER_0_10_209
*149 FILLER_0_10_221
*150 FILLER_0_10_233
*151 FILLER_0_10_245
*152 FILLER_0_10_251
*153 FILLER_0_10_253
*154 FILLER_0_10_265
*155 FILLER_0_10_27
*156 FILLER_0_10_277
*157 FILLER_0_10_289
*158 FILLER_0_10_29
*159 FILLER_0_10_3
*160 FILLER_0_10_301
*161 FILLER_0_10_307
*162 FILLER_0_10_309
*163 FILLER_0_10_321
*164 FILLER_0_10_333
*165 FILLER_0_10_41
*166 FILLER_0_10_53
*167 FILLER_0_10_65
*168 FILLER_0_10_77
*169 FILLER_0_10_83
*170 FILLER_0_10_85
*171 FILLER_0_10_97
*172 FILLER_0_11_105
*173 FILLER_0_11_111
*174 FILLER_0_11_113
*175 FILLER_0_11_125
*176 FILLER_0_11_137
*177 FILLER_0_11_149
*178 FILLER_0_11_15
*179 FILLER_0_11_161
*180 FILLER_0_11_167
*181 FILLER_0_11_169
*182 FILLER_0_11_181
*183 FILLER_0_11_193
*184 FILLER_0_11_205
*185 FILLER_0_11_217
*186 FILLER_0_11_223
*187 FILLER_0_11_225
*188 FILLER_0_11_237
*189 FILLER_0_11_249
*190 FILLER_0_11_261
*191 FILLER_0_11_27
*192 FILLER_0_11_273
*193 FILLER_0_11_279
*194 FILLER_0_11_281
*195 FILLER_0_11_293
*196 FILLER_0_11_3
*197 FILLER_0_11_305
*198 FILLER_0_11_317
*199 FILLER_0_11_329
*200 FILLER_0_11_39
*201 FILLER_0_11_51
*202 FILLER_0_11_55
*203 FILLER_0_11_57
*204 FILLER_0_11_69
*205 FILLER_0_11_81
*206 FILLER_0_11_93
*207 FILLER_0_12_109
*208 FILLER_0_12_121
*209 FILLER_0_12_133
*210 FILLER_0_12_139
*211 FILLER_0_12_141
*212 FILLER_0_12_15
*213 FILLER_0_12_153
*214 FILLER_0_12_165
*215 FILLER_0_12_177
*216 FILLER_0_12_189
*217 FILLER_0_12_195
*218 FILLER_0_12_197
*219 FILLER_0_12_209
*220 FILLER_0_12_221
*221 FILLER_0_12_233
*222 FILLER_0_12_245
*223 FILLER_0_12_251
*224 FILLER_0_12_253
*225 FILLER_0_12_265
*226 FILLER_0_12_27
*227 FILLER_0_12_277
*228 FILLER_0_12_289
*229 FILLER_0_12_29
*230 FILLER_0_12_3
*231 FILLER_0_12_301
*232 FILLER_0_12_307
*233 FILLER_0_12_309
*234 FILLER_0_12_321
*235 FILLER_0_12_333
*236 FILLER_0_12_41
*237 FILLER_0_12_53
*238 FILLER_0_12_65
*239 FILLER_0_12_77
*240 FILLER_0_12_83
*241 FILLER_0_12_85
*242 FILLER_0_12_97
*243 FILLER_0_13_105
*244 FILLER_0_13_111
*245 FILLER_0_13_113
*246 FILLER_0_13_125
*247 FILLER_0_13_137
*248 FILLER_0_13_149
*249 FILLER_0_13_15
*250 FILLER_0_13_161
*251 FILLER_0_13_167
*252 FILLER_0_13_169
*253 FILLER_0_13_181
*254 FILLER_0_13_193
*255 FILLER_0_13_205
*256 FILLER_0_13_217
*257 FILLER_0_13_223
*258 FILLER_0_13_225
*259 FILLER_0_13_237
*260 FILLER_0_13_249
*261 FILLER_0_13_261
*262 FILLER_0_13_27
*263 FILLER_0_13_273
*264 FILLER_0_13_279
*265 FILLER_0_13_281
*266 FILLER_0_13_293
*267 FILLER_0_13_3
*268 FILLER_0_13_305
*269 FILLER_0_13_317
*270 FILLER_0_13_329
*271 FILLER_0_13_39
*272 FILLER_0_13_51
*273 FILLER_0_13_55
*274 FILLER_0_13_57
*275 FILLER_0_13_69
*276 FILLER_0_13_81
*277 FILLER_0_13_93
*278 FILLER_0_14_109
*279 FILLER_0_14_121
*280 FILLER_0_14_133
*281 FILLER_0_14_139
*282 FILLER_0_14_141
*283 FILLER_0_14_15
*284 FILLER_0_14_153
*285 FILLER_0_14_165
*286 FILLER_0_14_177
*287 FILLER_0_14_189
*288 FILLER_0_14_195
*289 FILLER_0_14_197
*290 FILLER_0_14_209
*291 FILLER_0_14_221
*292 FILLER_0_14_233
*293 FILLER_0_14_245
*294 FILLER_0_14_251
*295 FILLER_0_14_253
*296 FILLER_0_14_265
*297 FILLER_0_14_27
*298 FILLER_0_14_277
*299 FILLER_0_14_289
*300 FILLER_0_14_29
*301 FILLER_0_14_3
*302 FILLER_0_14_301
*303 FILLER_0_14_307
*304 FILLER_0_14_309
*305 FILLER_0_14_321
*306 FILLER_0_14_333
*307 FILLER_0_14_41
*308 FILLER_0_14_53
*309 FILLER_0_14_65
*310 FILLER_0_14_77
*311 FILLER_0_14_83
*312 FILLER_0_14_85
*313 FILLER_0_14_97
*314 FILLER_0_15_105
*315 FILLER_0_15_111
*316 FILLER_0_15_113
*317 FILLER_0_15_125
*318 FILLER_0_15_137
*319 FILLER_0_15_149
*320 FILLER_0_15_15
*321 FILLER_0_15_161
*322 FILLER_0_15_167
*323 FILLER_0_15_169
*324 FILLER_0_15_181
*325 FILLER_0_15_193
*326 FILLER_0_15_205
*327 FILLER_0_15_217
*328 FILLER_0_15_223
*329 FILLER_0_15_225
*330 FILLER_0_15_237
*331 FILLER_0_15_249
*332 FILLER_0_15_261
*333 FILLER_0_15_27
*334 FILLER_0_15_273
*335 FILLER_0_15_279
*336 FILLER_0_15_281
*337 FILLER_0_15_293
*338 FILLER_0_15_3
*339 FILLER_0_15_305
*340 FILLER_0_15_317
*341 FILLER_0_15_329
*342 FILLER_0_15_39
*343 FILLER_0_15_51
*344 FILLER_0_15_55
*345 FILLER_0_15_57
*346 FILLER_0_15_69
*347 FILLER_0_15_81
*348 FILLER_0_15_93
*349 FILLER_0_16_109
*350 FILLER_0_16_121
*351 FILLER_0_16_133
*352 FILLER_0_16_139
*353 FILLER_0_16_141
*354 FILLER_0_16_15
*355 FILLER_0_16_153
*356 FILLER_0_16_165
*357 FILLER_0_16_177
*358 FILLER_0_16_189
*359 FILLER_0_16_195
*360 FILLER_0_16_197
*361 FILLER_0_16_209
*362 FILLER_0_16_221
*363 FILLER_0_16_233
*364 FILLER_0_16_245
*365 FILLER_0_16_251
*366 FILLER_0_16_253
*367 FILLER_0_16_265
*368 FILLER_0_16_27
*369 FILLER_0_16_277
*370 FILLER_0_16_289
*371 FILLER_0_16_29
*372 FILLER_0_16_3
*373 FILLER_0_16_301
*374 FILLER_0_16_307
*375 FILLER_0_16_309
*376 FILLER_0_16_321
*377 FILLER_0_16_333
*378 FILLER_0_16_41
*379 FILLER_0_16_53
*380 FILLER_0_16_65
*381 FILLER_0_16_77
*382 FILLER_0_16_83
*383 FILLER_0_16_85
*384 FILLER_0_16_97
*385 FILLER_0_17_105
*386 FILLER_0_17_111
*387 FILLER_0_17_113
*388 FILLER_0_17_125
*389 FILLER_0_17_137
*390 FILLER_0_17_149
*391 FILLER_0_17_15
*392 FILLER_0_17_161
*393 FILLER_0_17_167
*394 FILLER_0_17_169
*395 FILLER_0_17_181
*396 FILLER_0_17_193
*397 FILLER_0_17_205
*398 FILLER_0_17_217
*399 FILLER_0_17_223
*400 FILLER_0_17_225
*401 FILLER_0_17_237
*402 FILLER_0_17_249
*403 FILLER_0_17_261
*404 FILLER_0_17_27
*405 FILLER_0_17_273
*406 FILLER_0_17_279
*407 FILLER_0_17_281
*408 FILLER_0_17_293
*409 FILLER_0_17_3
*410 FILLER_0_17_305
*411 FILLER_0_17_317
*412 FILLER_0_17_329
*413 FILLER_0_17_39
*414 FILLER_0_17_51
*415 FILLER_0_17_55
*416 FILLER_0_17_57
*417 FILLER_0_17_69
*418 FILLER_0_17_81
*419 FILLER_0_17_93
*420 FILLER_0_18_109
*421 FILLER_0_18_121
*422 FILLER_0_18_133
*423 FILLER_0_18_139
*424 FILLER_0_18_141
*425 FILLER_0_18_15
*426 FILLER_0_18_153
*427 FILLER_0_18_165
*428 FILLER_0_18_177
*429 FILLER_0_18_189
*430 FILLER_0_18_195
*431 FILLER_0_18_197
*432 FILLER_0_18_209
*433 FILLER_0_18_221
*434 FILLER_0_18_233
*435 FILLER_0_18_245
*436 FILLER_0_18_251
*437 FILLER_0_18_253
*438 FILLER_0_18_265
*439 FILLER_0_18_27
*440 FILLER_0_18_277
*441 FILLER_0_18_289
*442 FILLER_0_18_29
*443 FILLER_0_18_3
*444 FILLER_0_18_301
*445 FILLER_0_18_307
*446 FILLER_0_18_309
*447 FILLER_0_18_321
*448 FILLER_0_18_333
*449 FILLER_0_18_41
*450 FILLER_0_18_53
*451 FILLER_0_18_65
*452 FILLER_0_18_77
*453 FILLER_0_18_83
*454 FILLER_0_18_85
*455 FILLER_0_18_97
*456 FILLER_0_19_105
*457 FILLER_0_19_111
*458 FILLER_0_19_113
*459 FILLER_0_19_125
*460 FILLER_0_19_137
*461 FILLER_0_19_149
*462 FILLER_0_19_15
*463 FILLER_0_19_161
*464 FILLER_0_19_167
*465 FILLER_0_19_169
*466 FILLER_0_19_181
*467 FILLER_0_19_193
*468 FILLER_0_19_205
*469 FILLER_0_19_217
*470 FILLER_0_19_223
*471 FILLER_0_19_225
*472 FILLER_0_19_237
*473 FILLER_0_19_249
*474 FILLER_0_19_261
*475 FILLER_0_19_27
*476 FILLER_0_19_273
*477 FILLER_0_19_279
*478 FILLER_0_19_281
*479 FILLER_0_19_293
*480 FILLER_0_19_3
*481 FILLER_0_19_305
*482 FILLER_0_19_317
*483 FILLER_0_19_329
*484 FILLER_0_19_39
*485 FILLER_0_19_51
*486 FILLER_0_19_55
*487 FILLER_0_19_57
*488 FILLER_0_19_69
*489 FILLER_0_19_81
*490 FILLER_0_19_93
*491 FILLER_0_1_105
*492 FILLER_0_1_111
*493 FILLER_0_1_113
*494 FILLER_0_1_125
*495 FILLER_0_1_137
*496 FILLER_0_1_149
*497 FILLER_0_1_15
*498 FILLER_0_1_161
*499 FILLER_0_1_167
*500 FILLER_0_1_169
*501 FILLER_0_1_181
*502 FILLER_0_1_193
*503 FILLER_0_1_205
*504 FILLER_0_1_217
*505 FILLER_0_1_223
*506 FILLER_0_1_225
*507 FILLER_0_1_237
*508 FILLER_0_1_249
*509 FILLER_0_1_261
*510 FILLER_0_1_27
*511 FILLER_0_1_273
*512 FILLER_0_1_279
*513 FILLER_0_1_281
*514 FILLER_0_1_293
*515 FILLER_0_1_3
*516 FILLER_0_1_305
*517 FILLER_0_1_317
*518 FILLER_0_1_329
*519 FILLER_0_1_39
*520 FILLER_0_1_51
*521 FILLER_0_1_55
*522 FILLER_0_1_57
*523 FILLER_0_1_69
*524 FILLER_0_1_81
*525 FILLER_0_1_93
*526 FILLER_0_20_109
*527 FILLER_0_20_121
*528 FILLER_0_20_133
*529 FILLER_0_20_139
*530 FILLER_0_20_141
*531 FILLER_0_20_15
*532 FILLER_0_20_153
*533 FILLER_0_20_165
*534 FILLER_0_20_177
*535 FILLER_0_20_189
*536 FILLER_0_20_195
*537 FILLER_0_20_197
*538 FILLER_0_20_209
*539 FILLER_0_20_221
*540 FILLER_0_20_233
*541 FILLER_0_20_245
*542 FILLER_0_20_251
*543 FILLER_0_20_253
*544 FILLER_0_20_265
*545 FILLER_0_20_27
*546 FILLER_0_20_277
*547 FILLER_0_20_289
*548 FILLER_0_20_29
*549 FILLER_0_20_3
*550 FILLER_0_20_301
*551 FILLER_0_20_307
*552 FILLER_0_20_309
*553 FILLER_0_20_321
*554 FILLER_0_20_333
*555 FILLER_0_20_41
*556 FILLER_0_20_53
*557 FILLER_0_20_65
*558 FILLER_0_20_77
*559 FILLER_0_20_83
*560 FILLER_0_20_85
*561 FILLER_0_20_97
*562 FILLER_0_21_105
*563 FILLER_0_21_111
*564 FILLER_0_21_113
*565 FILLER_0_21_125
*566 FILLER_0_21_137
*567 FILLER_0_21_149
*568 FILLER_0_21_15
*569 FILLER_0_21_161
*570 FILLER_0_21_167
*571 FILLER_0_21_169
*572 FILLER_0_21_181
*573 FILLER_0_21_193
*574 FILLER_0_21_205
*575 FILLER_0_21_217
*576 FILLER_0_21_223
*577 FILLER_0_21_225
*578 FILLER_0_21_237
*579 FILLER_0_21_249
*580 FILLER_0_21_261
*581 FILLER_0_21_27
*582 FILLER_0_21_273
*583 FILLER_0_21_279
*584 FILLER_0_21_281
*585 FILLER_0_21_293
*586 FILLER_0_21_3
*587 FILLER_0_21_305
*588 FILLER_0_21_317
*589 FILLER_0_21_329
*590 FILLER_0_21_39
*591 FILLER_0_21_51
*592 FILLER_0_21_55
*593 FILLER_0_21_57
*594 FILLER_0_21_69
*595 FILLER_0_21_81
*596 FILLER_0_21_93
*597 FILLER_0_22_109
*598 FILLER_0_22_121
*599 FILLER_0_22_133
*600 FILLER_0_22_139
*601 FILLER_0_22_141
*602 FILLER_0_22_15
*603 FILLER_0_22_153
*604 FILLER_0_22_165
*605 FILLER_0_22_177
*606 FILLER_0_22_189
*607 FILLER_0_22_195
*608 FILLER_0_22_197
*609 FILLER_0_22_209
*610 FILLER_0_22_221
*611 FILLER_0_22_233
*612 FILLER_0_22_245
*613 FILLER_0_22_251
*614 FILLER_0_22_253
*615 FILLER_0_22_265
*616 FILLER_0_22_27
*617 FILLER_0_22_277
*618 FILLER_0_22_289
*619 FILLER_0_22_29
*620 FILLER_0_22_3
*621 FILLER_0_22_301
*622 FILLER_0_22_307
*623 FILLER_0_22_309
*624 FILLER_0_22_321
*625 FILLER_0_22_333
*626 FILLER_0_22_41
*627 FILLER_0_22_53
*628 FILLER_0_22_65
*629 FILLER_0_22_77
*630 FILLER_0_22_83
*631 FILLER_0_22_85
*632 FILLER_0_22_97
*633 FILLER_0_23_105
*634 FILLER_0_23_111
*635 FILLER_0_23_113
*636 FILLER_0_23_125
*637 FILLER_0_23_137
*638 FILLER_0_23_149
*639 FILLER_0_23_15
*640 FILLER_0_23_161
*641 FILLER_0_23_167
*642 FILLER_0_23_169
*643 FILLER_0_23_181
*644 FILLER_0_23_193
*645 FILLER_0_23_205
*646 FILLER_0_23_217
*647 FILLER_0_23_223
*648 FILLER_0_23_225
*649 FILLER_0_23_237
*650 FILLER_0_23_249
*651 FILLER_0_23_261
*652 FILLER_0_23_27
*653 FILLER_0_23_273
*654 FILLER_0_23_279
*655 FILLER_0_23_281
*656 FILLER_0_23_293
*657 FILLER_0_23_3
*658 FILLER_0_23_305
*659 FILLER_0_23_317
*660 FILLER_0_23_329
*661 FILLER_0_23_39
*662 FILLER_0_23_51
*663 FILLER_0_23_55
*664 FILLER_0_23_57
*665 FILLER_0_23_69
*666 FILLER_0_23_81
*667 FILLER_0_23_93
*668 FILLER_0_24_109
*669 FILLER_0_24_121
*670 FILLER_0_24_133
*671 FILLER_0_24_139
*672 FILLER_0_24_141
*673 FILLER_0_24_15
*674 FILLER_0_24_153
*675 FILLER_0_24_165
*676 FILLER_0_24_177
*677 FILLER_0_24_189
*678 FILLER_0_24_195
*679 FILLER_0_24_197
*680 FILLER_0_24_209
*681 FILLER_0_24_221
*682 FILLER_0_24_233
*683 FILLER_0_24_245
*684 FILLER_0_24_251
*685 FILLER_0_24_253
*686 FILLER_0_24_265
*687 FILLER_0_24_27
*688 FILLER_0_24_277
*689 FILLER_0_24_289
*690 FILLER_0_24_29
*691 FILLER_0_24_3
*692 FILLER_0_24_301
*693 FILLER_0_24_307
*694 FILLER_0_24_309
*695 FILLER_0_24_321
*696 FILLER_0_24_333
*697 FILLER_0_24_41
*698 FILLER_0_24_53
*699 FILLER_0_24_65
*700 FILLER_0_24_77
*701 FILLER_0_24_83
*702 FILLER_0_24_85
*703 FILLER_0_24_97
*704 FILLER_0_25_105
*705 FILLER_0_25_111
*706 FILLER_0_25_113
*707 FILLER_0_25_125
*708 FILLER_0_25_137
*709 FILLER_0_25_149
*710 FILLER_0_25_15
*711 FILLER_0_25_161
*712 FILLER_0_25_167
*713 FILLER_0_25_169
*714 FILLER_0_25_181
*715 FILLER_0_25_193
*716 FILLER_0_25_205
*717 FILLER_0_25_217
*718 FILLER_0_25_223
*719 FILLER_0_25_225
*720 FILLER_0_25_237
*721 FILLER_0_25_249
*722 FILLER_0_25_261
*723 FILLER_0_25_27
*724 FILLER_0_25_273
*725 FILLER_0_25_279
*726 FILLER_0_25_281
*727 FILLER_0_25_293
*728 FILLER_0_25_3
*729 FILLER_0_25_305
*730 FILLER_0_25_317
*731 FILLER_0_25_329
*732 FILLER_0_25_39
*733 FILLER_0_25_51
*734 FILLER_0_25_55
*735 FILLER_0_25_57
*736 FILLER_0_25_69
*737 FILLER_0_25_81
*738 FILLER_0_25_93
*739 FILLER_0_26_109
*740 FILLER_0_26_121
*741 FILLER_0_26_133
*742 FILLER_0_26_139
*743 FILLER_0_26_141
*744 FILLER_0_26_15
*745 FILLER_0_26_153
*746 FILLER_0_26_165
*747 FILLER_0_26_177
*748 FILLER_0_26_189
*749 FILLER_0_26_195
*750 FILLER_0_26_197
*751 FILLER_0_26_209
*752 FILLER_0_26_221
*753 FILLER_0_26_233
*754 FILLER_0_26_245
*755 FILLER_0_26_251
*756 FILLER_0_26_253
*757 FILLER_0_26_265
*758 FILLER_0_26_27
*759 FILLER_0_26_277
*760 FILLER_0_26_289
*761 FILLER_0_26_29
*762 FILLER_0_26_3
*763 FILLER_0_26_301
*764 FILLER_0_26_307
*765 FILLER_0_26_309
*766 FILLER_0_26_321
*767 FILLER_0_26_333
*768 FILLER_0_26_41
*769 FILLER_0_26_53
*770 FILLER_0_26_65
*771 FILLER_0_26_77
*772 FILLER_0_26_83
*773 FILLER_0_26_85
*774 FILLER_0_26_97
*775 FILLER_0_27_105
*776 FILLER_0_27_111
*777 FILLER_0_27_113
*778 FILLER_0_27_125
*779 FILLER_0_27_137
*780 FILLER_0_27_149
*781 FILLER_0_27_15
*782 FILLER_0_27_161
*783 FILLER_0_27_167
*784 FILLER_0_27_169
*785 FILLER_0_27_181
*786 FILLER_0_27_193
*787 FILLER_0_27_205
*788 FILLER_0_27_217
*789 FILLER_0_27_223
*790 FILLER_0_27_225
*791 FILLER_0_27_237
*792 FILLER_0_27_249
*793 FILLER_0_27_261
*794 FILLER_0_27_27
*795 FILLER_0_27_273
*796 FILLER_0_27_279
*797 FILLER_0_27_281
*798 FILLER_0_27_293
*799 FILLER_0_27_3
*800 FILLER_0_27_305
*801 FILLER_0_27_317
*802 FILLER_0_27_329
*803 FILLER_0_27_39
*804 FILLER_0_27_51
*805 FILLER_0_27_55
*806 FILLER_0_27_57
*807 FILLER_0_27_69
*808 FILLER_0_27_81
*809 FILLER_0_27_93
*810 FILLER_0_28_109
*811 FILLER_0_28_121
*812 FILLER_0_28_133
*813 FILLER_0_28_139
*814 FILLER_0_28_141
*815 FILLER_0_28_15
*816 FILLER_0_28_153
*817 FILLER_0_28_165
*818 FILLER_0_28_177
*819 FILLER_0_28_189
*820 FILLER_0_28_195
*821 FILLER_0_28_197
*822 FILLER_0_28_209
*823 FILLER_0_28_221
*824 FILLER_0_28_233
*825 FILLER_0_28_245
*826 FILLER_0_28_251
*827 FILLER_0_28_253
*828 FILLER_0_28_265
*829 FILLER_0_28_27
*830 FILLER_0_28_277
*831 FILLER_0_28_289
*832 FILLER_0_28_29
*833 FILLER_0_28_3
*834 FILLER_0_28_301
*835 FILLER_0_28_307
*836 FILLER_0_28_309
*837 FILLER_0_28_321
*838 FILLER_0_28_333
*839 FILLER_0_28_41
*840 FILLER_0_28_53
*841 FILLER_0_28_65
*842 FILLER_0_28_77
*843 FILLER_0_28_83
*844 FILLER_0_28_85
*845 FILLER_0_28_97
*846 FILLER_0_29_105
*847 FILLER_0_29_111
*848 FILLER_0_29_113
*849 FILLER_0_29_125
*850 FILLER_0_29_137
*851 FILLER_0_29_149
*852 FILLER_0_29_15
*853 FILLER_0_29_161
*854 FILLER_0_29_167
*855 FILLER_0_29_169
*856 FILLER_0_29_181
*857 FILLER_0_29_193
*858 FILLER_0_29_205
*859 FILLER_0_29_217
*860 FILLER_0_29_223
*861 FILLER_0_29_225
*862 FILLER_0_29_237
*863 FILLER_0_29_249
*864 FILLER_0_29_261
*865 FILLER_0_29_27
*866 FILLER_0_29_273
*867 FILLER_0_29_279
*868 FILLER_0_29_281
*869 FILLER_0_29_293
*870 FILLER_0_29_3
*871 FILLER_0_29_305
*872 FILLER_0_29_317
*873 FILLER_0_29_329
*874 FILLER_0_29_39
*875 FILLER_0_29_51
*876 FILLER_0_29_55
*877 FILLER_0_29_57
*878 FILLER_0_29_69
*879 FILLER_0_29_81
*880 FILLER_0_29_93
*881 FILLER_0_2_109
*882 FILLER_0_2_121
*883 FILLER_0_2_133
*884 FILLER_0_2_139
*885 FILLER_0_2_141
*886 FILLER_0_2_15
*887 FILLER_0_2_153
*888 FILLER_0_2_165
*889 FILLER_0_2_177
*890 FILLER_0_2_189
*891 FILLER_0_2_195
*892 FILLER_0_2_197
*893 FILLER_0_2_209
*894 FILLER_0_2_221
*895 FILLER_0_2_233
*896 FILLER_0_2_245
*897 FILLER_0_2_251
*898 FILLER_0_2_253
*899 FILLER_0_2_265
*900 FILLER_0_2_27
*901 FILLER_0_2_277
*902 FILLER_0_2_289
*903 FILLER_0_2_29
*904 FILLER_0_2_3
*905 FILLER_0_2_301
*906 FILLER_0_2_307
*907 FILLER_0_2_309
*908 FILLER_0_2_321
*909 FILLER_0_2_333
*910 FILLER_0_2_41
*911 FILLER_0_2_53
*912 FILLER_0_2_65
*913 FILLER_0_2_77
*914 FILLER_0_2_83
*915 FILLER_0_2_85
*916 FILLER_0_2_97
*917 FILLER_0_30_109
*918 FILLER_0_30_121
*919 FILLER_0_30_133
*920 FILLER_0_30_139
*921 FILLER_0_30_141
*922 FILLER_0_30_15
*923 FILLER_0_30_153
*924 FILLER_0_30_165
*925 FILLER_0_30_177
*926 FILLER_0_30_189
*927 FILLER_0_30_195
*928 FILLER_0_30_197
*929 FILLER_0_30_209
*930 FILLER_0_30_221
*931 FILLER_0_30_233
*932 FILLER_0_30_245
*933 FILLER_0_30_251
*934 FILLER_0_30_253
*935 FILLER_0_30_265
*936 FILLER_0_30_27
*937 FILLER_0_30_277
*938 FILLER_0_30_289
*939 FILLER_0_30_29
*940 FILLER_0_30_3
*941 FILLER_0_30_301
*942 FILLER_0_30_307
*943 FILLER_0_30_309
*944 FILLER_0_30_321
*945 FILLER_0_30_333
*946 FILLER_0_30_41
*947 FILLER_0_30_53
*948 FILLER_0_30_65
*949 FILLER_0_30_77
*950 FILLER_0_30_83
*951 FILLER_0_30_85
*952 FILLER_0_30_97
*953 FILLER_0_31_105
*954 FILLER_0_31_111
*955 FILLER_0_31_113
*956 FILLER_0_31_125
*957 FILLER_0_31_137
*958 FILLER_0_31_149
*959 FILLER_0_31_15
*960 FILLER_0_31_161
*961 FILLER_0_31_167
*962 FILLER_0_31_169
*963 FILLER_0_31_181
*964 FILLER_0_31_193
*965 FILLER_0_31_205
*966 FILLER_0_31_217
*967 FILLER_0_31_223
*968 FILLER_0_31_225
*969 FILLER_0_31_237
*970 FILLER_0_31_249
*971 FILLER_0_31_261
*972 FILLER_0_31_27
*973 FILLER_0_31_273
*974 FILLER_0_31_279
*975 FILLER_0_31_281
*976 FILLER_0_31_293
*977 FILLER_0_31_3
*978 FILLER_0_31_305
*979 FILLER_0_31_317
*980 FILLER_0_31_329
*981 FILLER_0_31_39
*982 FILLER_0_31_51
*983 FILLER_0_31_55
*984 FILLER_0_31_57
*985 FILLER_0_31_69
*986 FILLER_0_31_81
*987 FILLER_0_31_93
*988 FILLER_0_32_109
*989 FILLER_0_32_121
*990 FILLER_0_32_133
*991 FILLER_0_32_139
*992 FILLER_0_32_141
*993 FILLER_0_32_15
*994 FILLER_0_32_153
*995 FILLER_0_32_165
*996 FILLER_0_32_177
*997 FILLER_0_32_189
*998 FILLER_0_32_195
*999 FILLER_0_32_197
*1000 FILLER_0_32_209
*1001 FILLER_0_32_221
*1002 FILLER_0_32_233
*1003 FILLER_0_32_245
*1004 FILLER_0_32_251
*1005 FILLER_0_32_253
*1006 FILLER_0_32_265
*1007 FILLER_0_32_27
*1008 FILLER_0_32_277
*1009 FILLER_0_32_289
*1010 FILLER_0_32_29
*1011 FILLER_0_32_3
*1012 FILLER_0_32_301
*1013 FILLER_0_32_307
*1014 FILLER_0_32_309
*1015 FILLER_0_32_321
*1016 FILLER_0_32_333
*1017 FILLER_0_32_41
*1018 FILLER_0_32_53
*1019 FILLER_0_32_65
*1020 FILLER_0_32_77
*1021 FILLER_0_32_83
*1022 FILLER_0_32_85
*1023 FILLER_0_32_97
*1024 FILLER_0_33_105
*1025 FILLER_0_33_111
*1026 FILLER_0_33_113
*1027 FILLER_0_33_125
*1028 FILLER_0_33_137
*1029 FILLER_0_33_149
*1030 FILLER_0_33_15
*1031 FILLER_0_33_161
*1032 FILLER_0_33_167
*1033 FILLER_0_33_169
*1034 FILLER_0_33_181
*1035 FILLER_0_33_193
*1036 FILLER_0_33_205
*1037 FILLER_0_33_217
*1038 FILLER_0_33_223
*1039 FILLER_0_33_225
*1040 FILLER_0_33_237
*1041 FILLER_0_33_249
*1042 FILLER_0_33_261
*1043 FILLER_0_33_27
*1044 FILLER_0_33_273
*1045 FILLER_0_33_279
*1046 FILLER_0_33_281
*1047 FILLER_0_33_293
*1048 FILLER_0_33_3
*1049 FILLER_0_33_305
*1050 FILLER_0_33_311
*1051 FILLER_0_33_315
*1052 FILLER_0_33_327
*1053 FILLER_0_33_39
*1054 FILLER_0_33_51
*1055 FILLER_0_33_55
*1056 FILLER_0_33_57
*1057 FILLER_0_33_69
*1058 FILLER_0_33_81
*1059 FILLER_0_33_93
*1060 FILLER_0_34_109
*1061 FILLER_0_34_121
*1062 FILLER_0_34_133
*1063 FILLER_0_34_139
*1064 FILLER_0_34_141
*1065 FILLER_0_34_15
*1066 FILLER_0_34_153
*1067 FILLER_0_34_165
*1068 FILLER_0_34_177
*1069 FILLER_0_34_189
*1070 FILLER_0_34_195
*1071 FILLER_0_34_197
*1072 FILLER_0_34_209
*1073 FILLER_0_34_221
*1074 FILLER_0_34_233
*1075 FILLER_0_34_245
*1076 FILLER_0_34_251
*1077 FILLER_0_34_253
*1078 FILLER_0_34_265
*1079 FILLER_0_34_27
*1080 FILLER_0_34_277
*1081 FILLER_0_34_289
*1082 FILLER_0_34_29
*1083 FILLER_0_34_3
*1084 FILLER_0_34_301
*1085 FILLER_0_34_307
*1086 FILLER_0_34_41
*1087 FILLER_0_34_53
*1088 FILLER_0_34_65
*1089 FILLER_0_34_77
*1090 FILLER_0_34_83
*1091 FILLER_0_34_85
*1092 FILLER_0_34_97
*1093 FILLER_0_35_105
*1094 FILLER_0_35_111
*1095 FILLER_0_35_113
*1096 FILLER_0_35_125
*1097 FILLER_0_35_137
*1098 FILLER_0_35_149
*1099 FILLER_0_35_15
*1100 FILLER_0_35_161
*1101 FILLER_0_35_167
*1102 FILLER_0_35_169
*1103 FILLER_0_35_181
*1104 FILLER_0_35_193
*1105 FILLER_0_35_205
*1106 FILLER_0_35_217
*1107 FILLER_0_35_223
*1108 FILLER_0_35_225
*1109 FILLER_0_35_237
*1110 FILLER_0_35_249
*1111 FILLER_0_35_261
*1112 FILLER_0_35_27
*1113 FILLER_0_35_273
*1114 FILLER_0_35_279
*1115 FILLER_0_35_281
*1116 FILLER_0_35_3
*1117 FILLER_0_35_39
*1118 FILLER_0_35_51
*1119 FILLER_0_35_55
*1120 FILLER_0_35_57
*1121 FILLER_0_35_69
*1122 FILLER_0_35_81
*1123 FILLER_0_35_93
*1124 FILLER_0_36_109
*1125 FILLER_0_36_121
*1126 FILLER_0_36_133
*1127 FILLER_0_36_139
*1128 FILLER_0_36_141
*1129 FILLER_0_36_15
*1130 FILLER_0_36_153
*1131 FILLER_0_36_165
*1132 FILLER_0_36_181
*1133 FILLER_0_36_186
*1134 FILLER_0_36_190
*1135 FILLER_0_36_197
*1136 FILLER_0_36_205
*1137 FILLER_0_36_219
*1138 FILLER_0_36_228
*1139 FILLER_0_36_236
*1140 FILLER_0_36_248
*1141 FILLER_0_36_253
*1142 FILLER_0_36_265
*1143 FILLER_0_36_27
*1144 FILLER_0_36_282
*1145 FILLER_0_36_288
*1146 FILLER_0_36_29
*1147 FILLER_0_36_298
*1148 FILLER_0_36_3
*1149 FILLER_0_36_314
*1150 FILLER_0_36_41
*1151 FILLER_0_36_53
*1152 FILLER_0_36_65
*1153 FILLER_0_36_77
*1154 FILLER_0_36_83
*1155 FILLER_0_36_85
*1156 FILLER_0_36_97
*1157 FILLER_0_37_105
*1158 FILLER_0_37_111
*1159 FILLER_0_37_113
*1160 FILLER_0_37_125
*1161 FILLER_0_37_137
*1162 FILLER_0_37_141
*1163 FILLER_0_37_145
*1164 FILLER_0_37_15
*1165 FILLER_0_37_166
*1166 FILLER_0_37_172
*1167 FILLER_0_37_184
*1168 FILLER_0_37_192
*1169 FILLER_0_37_196
*1170 FILLER_0_37_209
*1171 FILLER_0_37_222
*1172 FILLER_0_37_239
*1173 FILLER_0_37_251
*1174 FILLER_0_37_263
*1175 FILLER_0_37_27
*1176 FILLER_0_37_277
*1177 FILLER_0_37_281
*1178 FILLER_0_37_3
*1179 FILLER_0_37_332
*1180 FILLER_0_37_39
*1181 FILLER_0_37_51
*1182 FILLER_0_37_55
*1183 FILLER_0_37_57
*1184 FILLER_0_37_69
*1185 FILLER_0_37_81
*1186 FILLER_0_37_93
*1187 FILLER_0_38_10
*1188 FILLER_0_38_102
*1189 FILLER_0_38_106
*1190 FILLER_0_38_110
*1191 FILLER_0_38_113
*1192 FILLER_0_38_118
*1193 FILLER_0_38_122
*1194 FILLER_0_38_126
*1195 FILLER_0_38_130
*1196 FILLER_0_38_134
*1197 FILLER_0_38_14
*1198 FILLER_0_38_145
*1199 FILLER_0_38_150
*1200 FILLER_0_38_158
*1201 FILLER_0_38_169
*1202 FILLER_0_38_177
*1203 FILLER_0_38_18
*1204 FILLER_0_38_193
*1205 FILLER_0_38_197
*1206 FILLER_0_38_209
*1207 FILLER_0_38_217
*1208 FILLER_0_38_22
*1209 FILLER_0_38_223
*1210 FILLER_0_38_225
*1211 FILLER_0_38_237
*1212 FILLER_0_38_249
*1213 FILLER_0_38_253
*1214 FILLER_0_38_257
*1215 FILLER_0_38_270
*1216 FILLER_0_38_287
*1217 FILLER_0_38_312
*1218 FILLER_0_38_32
*1219 FILLER_0_38_320
*1220 FILLER_0_38_333
*1221 FILLER_0_38_38
*1222 FILLER_0_38_42
*1223 FILLER_0_38_46
*1224 FILLER_0_38_50
*1225 FILLER_0_38_54
*1226 FILLER_0_38_57
*1227 FILLER_0_38_6
*1228 FILLER_0_38_62
*1229 FILLER_0_38_66
*1230 FILLER_0_38_70
*1231 FILLER_0_38_74
*1232 FILLER_0_38_78
*1233 FILLER_0_38_88
*1234 FILLER_0_38_94
*1235 FILLER_0_38_98
*1236 FILLER_0_3_105
*1237 FILLER_0_3_111
*1238 FILLER_0_3_113
*1239 FILLER_0_3_125
*1240 FILLER_0_3_137
*1241 FILLER_0_3_149
*1242 FILLER_0_3_15
*1243 FILLER_0_3_161
*1244 FILLER_0_3_167
*1245 FILLER_0_3_169
*1246 FILLER_0_3_181
*1247 FILLER_0_3_193
*1248 FILLER_0_3_205
*1249 FILLER_0_3_217
*1250 FILLER_0_3_223
*1251 FILLER_0_3_225
*1252 FILLER_0_3_237
*1253 FILLER_0_3_249
*1254 FILLER_0_3_261
*1255 FILLER_0_3_27
*1256 FILLER_0_3_273
*1257 FILLER_0_3_279
*1258 FILLER_0_3_281
*1259 FILLER_0_3_293
*1260 FILLER_0_3_3
*1261 FILLER_0_3_305
*1262 FILLER_0_3_317
*1263 FILLER_0_3_329
*1264 FILLER_0_3_39
*1265 FILLER_0_3_51
*1266 FILLER_0_3_55
*1267 FILLER_0_3_57
*1268 FILLER_0_3_69
*1269 FILLER_0_3_81
*1270 FILLER_0_3_93
*1271 FILLER_0_4_109
*1272 FILLER_0_4_121
*1273 FILLER_0_4_133
*1274 FILLER_0_4_139
*1275 FILLER_0_4_141
*1276 FILLER_0_4_15
*1277 FILLER_0_4_153
*1278 FILLER_0_4_165
*1279 FILLER_0_4_177
*1280 FILLER_0_4_189
*1281 FILLER_0_4_195
*1282 FILLER_0_4_197
*1283 FILLER_0_4_209
*1284 FILLER_0_4_221
*1285 FILLER_0_4_233
*1286 FILLER_0_4_245
*1287 FILLER_0_4_251
*1288 FILLER_0_4_253
*1289 FILLER_0_4_265
*1290 FILLER_0_4_27
*1291 FILLER_0_4_277
*1292 FILLER_0_4_289
*1293 FILLER_0_4_29
*1294 FILLER_0_4_3
*1295 FILLER_0_4_301
*1296 FILLER_0_4_307
*1297 FILLER_0_4_309
*1298 FILLER_0_4_321
*1299 FILLER_0_4_333
*1300 FILLER_0_4_41
*1301 FILLER_0_4_53
*1302 FILLER_0_4_65
*1303 FILLER_0_4_77
*1304 FILLER_0_4_83
*1305 FILLER_0_4_85
*1306 FILLER_0_4_97
*1307 FILLER_0_5_105
*1308 FILLER_0_5_111
*1309 FILLER_0_5_113
*1310 FILLER_0_5_125
*1311 FILLER_0_5_137
*1312 FILLER_0_5_149
*1313 FILLER_0_5_15
*1314 FILLER_0_5_161
*1315 FILLER_0_5_167
*1316 FILLER_0_5_169
*1317 FILLER_0_5_181
*1318 FILLER_0_5_193
*1319 FILLER_0_5_205
*1320 FILLER_0_5_217
*1321 FILLER_0_5_223
*1322 FILLER_0_5_225
*1323 FILLER_0_5_237
*1324 FILLER_0_5_249
*1325 FILLER_0_5_261
*1326 FILLER_0_5_27
*1327 FILLER_0_5_273
*1328 FILLER_0_5_279
*1329 FILLER_0_5_281
*1330 FILLER_0_5_293
*1331 FILLER_0_5_3
*1332 FILLER_0_5_305
*1333 FILLER_0_5_317
*1334 FILLER_0_5_329
*1335 FILLER_0_5_39
*1336 FILLER_0_5_51
*1337 FILLER_0_5_55
*1338 FILLER_0_5_57
*1339 FILLER_0_5_69
*1340 FILLER_0_5_81
*1341 FILLER_0_5_93
*1342 FILLER_0_6_109
*1343 FILLER_0_6_121
*1344 FILLER_0_6_133
*1345 FILLER_0_6_139
*1346 FILLER_0_6_141
*1347 FILLER_0_6_15
*1348 FILLER_0_6_153
*1349 FILLER_0_6_165
*1350 FILLER_0_6_177
*1351 FILLER_0_6_189
*1352 FILLER_0_6_195
*1353 FILLER_0_6_197
*1354 FILLER_0_6_209
*1355 FILLER_0_6_221
*1356 FILLER_0_6_233
*1357 FILLER_0_6_245
*1358 FILLER_0_6_251
*1359 FILLER_0_6_253
*1360 FILLER_0_6_265
*1361 FILLER_0_6_27
*1362 FILLER_0_6_277
*1363 FILLER_0_6_289
*1364 FILLER_0_6_29
*1365 FILLER_0_6_3
*1366 FILLER_0_6_301
*1367 FILLER_0_6_307
*1368 FILLER_0_6_309
*1369 FILLER_0_6_321
*1370 FILLER_0_6_333
*1371 FILLER_0_6_41
*1372 FILLER_0_6_53
*1373 FILLER_0_6_65
*1374 FILLER_0_6_77
*1375 FILLER_0_6_83
*1376 FILLER_0_6_85
*1377 FILLER_0_6_97
*1378 FILLER_0_7_105
*1379 FILLER_0_7_111
*1380 FILLER_0_7_113
*1381 FILLER_0_7_125
*1382 FILLER_0_7_137
*1383 FILLER_0_7_149
*1384 FILLER_0_7_15
*1385 FILLER_0_7_161
*1386 FILLER_0_7_167
*1387 FILLER_0_7_169
*1388 FILLER_0_7_181
*1389 FILLER_0_7_193
*1390 FILLER_0_7_205
*1391 FILLER_0_7_217
*1392 FILLER_0_7_223
*1393 FILLER_0_7_225
*1394 FILLER_0_7_237
*1395 FILLER_0_7_249
*1396 FILLER_0_7_261
*1397 FILLER_0_7_27
*1398 FILLER_0_7_273
*1399 FILLER_0_7_279
*1400 FILLER_0_7_281
*1401 FILLER_0_7_293
*1402 FILLER_0_7_3
*1403 FILLER_0_7_305
*1404 FILLER_0_7_317
*1405 FILLER_0_7_329
*1406 FILLER_0_7_39
*1407 FILLER_0_7_51
*1408 FILLER_0_7_55
*1409 FILLER_0_7_57
*1410 FILLER_0_7_69
*1411 FILLER_0_7_81
*1412 FILLER_0_7_93
*1413 FILLER_0_8_109
*1414 FILLER_0_8_121
*1415 FILLER_0_8_133
*1416 FILLER_0_8_139
*1417 FILLER_0_8_141
*1418 FILLER_0_8_15
*1419 FILLER_0_8_153
*1420 FILLER_0_8_165
*1421 FILLER_0_8_177
*1422 FILLER_0_8_189
*1423 FILLER_0_8_195
*1424 FILLER_0_8_197
*1425 FILLER_0_8_209
*1426 FILLER_0_8_221
*1427 FILLER_0_8_233
*1428 FILLER_0_8_245
*1429 FILLER_0_8_251
*1430 FILLER_0_8_253
*1431 FILLER_0_8_265
*1432 FILLER_0_8_27
*1433 FILLER_0_8_277
*1434 FILLER_0_8_289
*1435 FILLER_0_8_29
*1436 FILLER_0_8_3
*1437 FILLER_0_8_301
*1438 FILLER_0_8_307
*1439 FILLER_0_8_309
*1440 FILLER_0_8_321
*1441 FILLER_0_8_333
*1442 FILLER_0_8_41
*1443 FILLER_0_8_53
*1444 FILLER_0_8_65
*1445 FILLER_0_8_77
*1446 FILLER_0_8_83
*1447 FILLER_0_8_85
*1448 FILLER_0_8_97
*1449 FILLER_0_9_105
*1450 FILLER_0_9_111
*1451 FILLER_0_9_113
*1452 FILLER_0_9_125
*1453 FILLER_0_9_137
*1454 FILLER_0_9_149
*1455 FILLER_0_9_15
*1456 FILLER_0_9_161
*1457 FILLER_0_9_167
*1458 FILLER_0_9_169
*1459 FILLER_0_9_181
*1460 FILLER_0_9_193
*1461 FILLER_0_9_205
*1462 FILLER_0_9_217
*1463 FILLER_0_9_223
*1464 FILLER_0_9_225
*1465 FILLER_0_9_237
*1466 FILLER_0_9_249
*1467 FILLER_0_9_261
*1468 FILLER_0_9_27
*1469 FILLER_0_9_273
*1470 FILLER_0_9_279
*1471 FILLER_0_9_281