*SPEF "ieee 1481-1999"
*DESIGN "tt_um_wokwi_399192124046955521"
*DATE "11:40:50 Wednesday May 29, 2024"
*VENDOR "The OpenROAD Project"
*PROGRAM "OpenROAD"
*VERSION "da0053d7b0014ab9c87ea148875ff6c2a0f9b658"
*DESIGN_FLOW "NAME_SCOPE LOCAL" "PIN_CAP NONE"
*DIVIDER /
*DELIMITER :
*BUS_DELIMITER []
*T_UNIT 1 NS
*C_UNIT 1 PF
*R_UNIT 1 OHM
*L_UNIT 1 HENRY

*NAME_MAP
*3 clk
*4 ena
*5 rst_n
*6 ui_in[0]
*7 ui_in[1]
*8 ui_in[2]
*9 ui_in[3]
*10 ui_in[4]
*11 ui_in[5]
*12 ui_in[6]
*13 ui_in[7]
*14 uio_in[0]
*15 uio_in[1]
*16 uio_in[2]
*17 uio_in[3]
*18 uio_in[4]
*19 uio_in[5]
*20 uio_in[6]
*21 uio_in[7]
*22 net14
*23 net15
*24 net16
*25 net17
*26 net22
*27 net23
*28 net24
*29 net25
*30 net18
*31 net19
*32 net20
*33 net21
*34 uio_out[4]
*35 uio_out[5]
*36 uio_out[6]
*37 uio_out[7]
*38 uo_out[0]
*39 uo_out[1]
*40 uo_out[2]
*41 uo_out[3]
*42 uo_out[4]
*43 uo_out[5]
*44 uo_out[6]
*45 uo_out[7]
*46 _000_
*47 _001_
*48 _002_
*49 _003_
*50 _004_
*51 _005_
*52 _006_
*53 _007_
*54 _008_
*55 _009_
*56 _010_
*57 _011_
*58 _012_
*59 _013_
*60 _014_
*61 _015_
*62 _016_
*63 _017_
*64 _018_
*65 _019_
*66 _020_
*67 _021_
*68 _022_
*69 _023_
*70 _024_
*71 _025_
*72 _026_
*73 _027_
*74 _028_
*75 _029_
*76 _030_
*77 _031_
*78 _032_
*79 _033_
*80 _034_
*81 _035_
*82 _036_
*83 _037_
*84 _038_
*85 _039_
*86 _040_
*87 _041_
*88 _042_
*89 _043_
*90 _044_
*91 _045_
*92 _046_
*93 _047_
*94 _048_
*95 _049_
*96 _050_
*97 _051_
*98 _052_
*99 _053_
*100 _054_
*101 _055_
*102 _056_
*103 _057_
*104 _058_
*105 _059_
*106 _060_
*107 _061_
*108 _062_
*109 _063_
*110 _064_
*111 _065_
*112 _066_
*113 _067_
*114 _068_
*115 _069_
*116 _070_
*117 mux21\.a
*118 mux22\.a
*119 mux23\.a
*120 mux24\.a
*121 mux25\.out
*122 mux26\.out
*123 mux27\.out
*124 mux28\.out
*125 net1
*126 net10
*127 net11
*128 net12
*129 net13
*130 net2
*131 net3
*132 net4
*133 net5
*134 net6
*135 net7
*136 net8
*137 net9
*138 xor38\.out
*139 xor39\.out
*140 xor40\.out
*141 xor41\.out
*142 FILLER_0_0_109
*143 FILLER_0_0_113
*144 FILLER_0_0_125
*145 FILLER_0_0_137
*146 FILLER_0_0_141
*147 FILLER_0_0_15
*148 FILLER_0_0_153
*149 FILLER_0_0_165
*150 FILLER_0_0_169
*151 FILLER_0_0_181
*152 FILLER_0_0_193
*153 FILLER_0_0_197
*154 FILLER_0_0_209
*155 FILLER_0_0_221
*156 FILLER_0_0_225
*157 FILLER_0_0_237
*158 FILLER_0_0_249
*159 FILLER_0_0_253
*160 FILLER_0_0_265
*161 FILLER_0_0_27
*162 FILLER_0_0_277
*163 FILLER_0_0_281
*164 FILLER_0_0_29
*165 FILLER_0_0_293
*166 FILLER_0_0_3
*167 FILLER_0_0_305
*168 FILLER_0_0_309
*169 FILLER_0_0_321
*170 FILLER_0_0_333
*171 FILLER_0_0_41
*172 FILLER_0_0_53
*173 FILLER_0_0_57
*174 FILLER_0_0_69
*175 FILLER_0_0_81
*176 FILLER_0_0_85
*177 FILLER_0_0_97
*178 FILLER_0_10_109
*179 FILLER_0_10_121
*180 FILLER_0_10_133
*181 FILLER_0_10_139
*182 FILLER_0_10_141
*183 FILLER_0_10_15
*184 FILLER_0_10_153
*185 FILLER_0_10_165
*186 FILLER_0_10_177
*187 FILLER_0_10_189
*188 FILLER_0_10_195
*189 FILLER_0_10_197
*190 FILLER_0_10_209
*191 FILLER_0_10_221
*192 FILLER_0_10_233
*193 FILLER_0_10_245
*194 FILLER_0_10_251
*195 FILLER_0_10_253
*196 FILLER_0_10_265
*197 FILLER_0_10_27
*198 FILLER_0_10_277
*199 FILLER_0_10_289
*200 FILLER_0_10_29
*201 FILLER_0_10_3
*202 FILLER_0_10_301
*203 FILLER_0_10_307
*204 FILLER_0_10_309
*205 FILLER_0_10_321
*206 FILLER_0_10_333
*207 FILLER_0_10_41
*208 FILLER_0_10_53
*209 FILLER_0_10_65
*210 FILLER_0_10_77
*211 FILLER_0_10_83
*212 FILLER_0_10_85
*213 FILLER_0_10_97
*214 FILLER_0_11_105
*215 FILLER_0_11_111
*216 FILLER_0_11_113
*217 FILLER_0_11_125
*218 FILLER_0_11_137
*219 FILLER_0_11_149
*220 FILLER_0_11_15
*221 FILLER_0_11_161
*222 FILLER_0_11_167
*223 FILLER_0_11_169
*224 FILLER_0_11_181
*225 FILLER_0_11_193
*226 FILLER_0_11_205
*227 FILLER_0_11_217
*228 FILLER_0_11_223
*229 FILLER_0_11_225
*230 FILLER_0_11_237
*231 FILLER_0_11_249
*232 FILLER_0_11_261
*233 FILLER_0_11_27
*234 FILLER_0_11_273
*235 FILLER_0_11_279
*236 FILLER_0_11_281
*237 FILLER_0_11_293
*238 FILLER_0_11_3
*239 FILLER_0_11_305
*240 FILLER_0_11_317
*241 FILLER_0_11_329
*242 FILLER_0_11_39
*243 FILLER_0_11_51
*244 FILLER_0_11_55
*245 FILLER_0_11_57
*246 FILLER_0_11_69
*247 FILLER_0_11_81
*248 FILLER_0_11_93
*249 FILLER_0_12_109
*250 FILLER_0_12_121
*251 FILLER_0_12_133
*252 FILLER_0_12_139
*253 FILLER_0_12_141
*254 FILLER_0_12_15
*255 FILLER_0_12_153
*256 FILLER_0_12_165
*257 FILLER_0_12_177
*258 FILLER_0_12_189
*259 FILLER_0_12_195
*260 FILLER_0_12_197
*261 FILLER_0_12_209
*262 FILLER_0_12_221
*263 FILLER_0_12_233
*264 FILLER_0_12_245
*265 FILLER_0_12_251
*266 FILLER_0_12_253
*267 FILLER_0_12_265
*268 FILLER_0_12_27
*269 FILLER_0_12_277
*270 FILLER_0_12_289
*271 FILLER_0_12_29
*272 FILLER_0_12_3
*273 FILLER_0_12_301
*274 FILLER_0_12_307
*275 FILLER_0_12_309
*276 FILLER_0_12_321
*277 FILLER_0_12_333
*278 FILLER_0_12_41
*279 FILLER_0_12_53
*280 FILLER_0_12_65
*281 FILLER_0_12_77
*282 FILLER_0_12_83
*283 FILLER_0_12_85
*284 FILLER_0_12_97
*285 FILLER_0_13_105
*286 FILLER_0_13_111
*287 FILLER_0_13_113
*288 FILLER_0_13_125
*289 FILLER_0_13_137
*290 FILLER_0_13_149
*291 FILLER_0_13_15
*292 FILLER_0_13_161
*293 FILLER_0_13_167
*294 FILLER_0_13_169
*295 FILLER_0_13_181
*296 FILLER_0_13_193
*297 FILLER_0_13_205
*298 FILLER_0_13_217
*299 FILLER_0_13_223
*300 FILLER_0_13_225
*301 FILLER_0_13_237
*302 FILLER_0_13_249
*303 FILLER_0_13_261
*304 FILLER_0_13_27
*305 FILLER_0_13_273
*306 FILLER_0_13_279
*307 FILLER_0_13_281
*308 FILLER_0_13_293
*309 FILLER_0_13_3
*310 FILLER_0_13_305
*311 FILLER_0_13_317
*312 FILLER_0_13_329
*313 FILLER_0_13_39
*314 FILLER_0_13_51
*315 FILLER_0_13_55
*316 FILLER_0_13_57
*317 FILLER_0_13_69
*318 FILLER_0_13_81
*319 FILLER_0_13_93
*320 FILLER_0_14_109
*321 FILLER_0_14_121
*322 FILLER_0_14_133
*323 FILLER_0_14_139
*324 FILLER_0_14_141
*325 FILLER_0_14_15
*326 FILLER_0_14_153
*327 FILLER_0_14_165
*328 FILLER_0_14_177
*329 FILLER_0_14_189
*330 FILLER_0_14_195
*331 FILLER_0_14_197
*332 FILLER_0_14_209
*333 FILLER_0_14_221
*334 FILLER_0_14_233
*335 FILLER_0_14_245
*336 FILLER_0_14_251
*337 FILLER_0_14_253
*338 FILLER_0_14_265
*339 FILLER_0_14_27
*340 FILLER_0_14_277
*341 FILLER_0_14_289
*342 FILLER_0_14_29
*343 FILLER_0_14_3
*344 FILLER_0_14_301
*345 FILLER_0_14_307
*346 FILLER_0_14_309
*347 FILLER_0_14_321
*348 FILLER_0_14_333
*349 FILLER_0_14_41
*350 FILLER_0_14_53
*351 FILLER_0_14_65
*352 FILLER_0_14_77
*353 FILLER_0_14_83
*354 FILLER_0_14_85
*355 FILLER_0_14_97
*356 FILLER_0_15_105
*357 FILLER_0_15_111
*358 FILLER_0_15_113
*359 FILLER_0_15_125
*360 FILLER_0_15_137
*361 FILLER_0_15_149
*362 FILLER_0_15_15
*363 FILLER_0_15_161
*364 FILLER_0_15_167
*365 FILLER_0_15_169
*366 FILLER_0_15_181
*367 FILLER_0_15_193
*368 FILLER_0_15_205
*369 FILLER_0_15_217
*370 FILLER_0_15_223
*371 FILLER_0_15_225
*372 FILLER_0_15_237
*373 FILLER_0_15_249
*374 FILLER_0_15_261
*375 FILLER_0_15_27
*376 FILLER_0_15_273
*377 FILLER_0_15_279
*378 FILLER_0_15_281
*379 FILLER_0_15_293
*380 FILLER_0_15_3
*381 FILLER_0_15_305
*382 FILLER_0_15_317
*383 FILLER_0_15_329
*384 FILLER_0_15_39
*385 FILLER_0_15_51
*386 FILLER_0_15_55
*387 FILLER_0_15_57
*388 FILLER_0_15_69
*389 FILLER_0_15_81
*390 FILLER_0_15_93
*391 FILLER_0_16_109
*392 FILLER_0_16_121
*393 FILLER_0_16_133
*394 FILLER_0_16_139
*395 FILLER_0_16_141
*396 FILLER_0_16_15
*397 FILLER_0_16_153
*398 FILLER_0_16_165
*399 FILLER_0_16_177
*400 FILLER_0_16_189
*401 FILLER_0_16_195
*402 FILLER_0_16_197
*403 FILLER_0_16_209
*404 FILLER_0_16_221
*405 FILLER_0_16_233
*406 FILLER_0_16_245
*407 FILLER_0_16_251
*408 FILLER_0_16_253
*409 FILLER_0_16_265
*410 FILLER_0_16_27
*411 FILLER_0_16_277
*412 FILLER_0_16_289
*413 FILLER_0_16_29
*414 FILLER_0_16_3
*415 FILLER_0_16_301
*416 FILLER_0_16_307
*417 FILLER_0_16_309
*418 FILLER_0_16_321
*419 FILLER_0_16_333
*420 FILLER_0_16_41
*421 FILLER_0_16_53
*422 FILLER_0_16_65
*423 FILLER_0_16_77
*424 FILLER_0_16_83
*425 FILLER_0_16_85
*426 FILLER_0_16_97
*427 FILLER_0_17_105
*428 FILLER_0_17_111
*429 FILLER_0_17_113
*430 FILLER_0_17_125
*431 FILLER_0_17_137
*432 FILLER_0_17_149
*433 FILLER_0_17_15
*434 FILLER_0_17_161
*435 FILLER_0_17_167
*436 FILLER_0_17_169
*437 FILLER_0_17_181
*438 FILLER_0_17_193
*439 FILLER_0_17_205
*440 FILLER_0_17_217
*441 FILLER_0_17_223
*442 FILLER_0_17_225
*443 FILLER_0_17_237
*444 FILLER_0_17_249
*445 FILLER_0_17_261
*446 FILLER_0_17_27
*447 FILLER_0_17_273
*448 FILLER_0_17_279
*449 FILLER_0_17_281
*450 FILLER_0_17_293
*451 FILLER_0_17_3
*452 FILLER_0_17_305
*453 FILLER_0_17_317
*454 FILLER_0_17_329
*455 FILLER_0_17_39
*456 FILLER_0_17_51
*457 FILLER_0_17_55
*458 FILLER_0_17_57
*459 FILLER_0_17_69
*460 FILLER_0_17_81
*461 FILLER_0_17_93
*462 FILLER_0_18_109
*463 FILLER_0_18_121
*464 FILLER_0_18_133
*465 FILLER_0_18_139
*466 FILLER_0_18_141
*467 FILLER_0_18_15
*468 FILLER_0_18_153
*469 FILLER_0_18_165
*470 FILLER_0_18_177
*471 FILLER_0_18_189
*472 FILLER_0_18_195
*473 FILLER_0_18_197
*474 FILLER_0_18_209
*475 FILLER_0_18_221
*476 FILLER_0_18_233
*477 FILLER_0_18_245
*478 FILLER_0_18_251
*479 FILLER_0_18_253
*480 FILLER_0_18_265
*481 FILLER_0_18_27
*482 FILLER_0_18_277
*483 FILLER_0_18_289
*484 FILLER_0_18_29
*485 FILLER_0_18_3
*486 FILLER_0_18_301
*487 FILLER_0_18_307
*488 FILLER_0_18_309
*489 FILLER_0_18_321
*490 FILLER_0_18_333
*491 FILLER_0_18_41
*492 FILLER_0_18_53
*493 FILLER_0_18_65
*494 FILLER_0_18_77
*495 FILLER_0_18_83
*496 FILLER_0_18_85
*497 FILLER_0_18_97
*498 FILLER_0_19_105
*499 FILLER_0_19_111
*500 FILLER_0_19_113
*501 FILLER_0_19_125
*502 FILLER_0_19_137
*503 FILLER_0_19_149
*504 FILLER_0_19_15
*505 FILLER_0_19_161
*506 FILLER_0_19_167
*507 FILLER_0_19_169
*508 FILLER_0_19_181
*509 FILLER_0_19_193
*510 FILLER_0_19_205
*511 FILLER_0_19_217
*512 FILLER_0_19_223
*513 FILLER_0_19_225
*514 FILLER_0_19_237
*515 FILLER_0_19_249
*516 FILLER_0_19_261
*517 FILLER_0_19_27
*518 FILLER_0_19_273
*519 FILLER_0_19_279
*520 FILLER_0_19_281
*521 FILLER_0_19_293
*522 FILLER_0_19_3
*523 FILLER_0_19_305
*524 FILLER_0_19_317
*525 FILLER_0_19_329
*526 FILLER_0_19_39
*527 FILLER_0_19_51
*528 FILLER_0_19_55
*529 FILLER_0_19_57
*530 FILLER_0_19_69
*531 FILLER_0_19_81
*532 FILLER_0_19_93
*533 FILLER_0_1_105
*534 FILLER_0_1_111
*535 FILLER_0_1_113
*536 FILLER_0_1_125
*537 FILLER_0_1_137
*538 FILLER_0_1_149
*539 FILLER_0_1_15
*540 FILLER_0_1_161
*541 FILLER_0_1_167
*542 FILLER_0_1_169
*543 FILLER_0_1_181
*544 FILLER_0_1_193
*545 FILLER_0_1_205
*546 FILLER_0_1_217
*547 FILLER_0_1_223
*548 FILLER_0_1_225
*549 FILLER_0_1_237
*550 FILLER_0_1_249
*551 FILLER_0_1_261
*552 FILLER_0_1_27
*553 FILLER_0_1_273
*554 FILLER_0_1_279
*555 FILLER_0_1_281
*556 FILLER_0_1_293
*557 FILLER_0_1_3
*558 FILLER_0_1_305
*559 FILLER_0_1_317
*560 FILLER_0_1_329
*561 FILLER_0_1_39
*562 FILLER_0_1_51
*563 FILLER_0_1_55
*564 FILLER_0_1_57
*565 FILLER_0_1_69
*566 FILLER_0_1_81
*567 FILLER_0_1_93
*568 FILLER_0_20_109
*569 FILLER_0_20_121
*570 FILLER_0_20_133
*571 FILLER_0_20_139
*572 FILLER_0_20_141
*573 FILLER_0_20_15
*574 FILLER_0_20_153
*575 FILLER_0_20_165
*576 FILLER_0_20_177
*577 FILLER_0_20_189
*578 FILLER_0_20_195
*579 FILLER_0_20_197
*580 FILLER_0_20_209
*581 FILLER_0_20_221
*582 FILLER_0_20_233
*583 FILLER_0_20_245
*584 FILLER_0_20_251
*585 FILLER_0_20_253
*586 FILLER_0_20_265
*587 FILLER_0_20_27
*588 FILLER_0_20_277
*589 FILLER_0_20_289
*590 FILLER_0_20_29
*591 FILLER_0_20_3
*592 FILLER_0_20_301
*593 FILLER_0_20_307
*594 FILLER_0_20_309
*595 FILLER_0_20_321
*596 FILLER_0_20_333
*597 FILLER_0_20_41
*598 FILLER_0_20_53
*599 FILLER_0_20_65
*600 FILLER_0_20_77
*601 FILLER_0_20_83
*602 FILLER_0_20_85
*603 FILLER_0_20_97
*604 FILLER_0_21_105
*605 FILLER_0_21_111
*606 FILLER_0_21_113
*607 FILLER_0_21_125
*608 FILLER_0_21_137
*609 FILLER_0_21_149
*610 FILLER_0_21_15
*611 FILLER_0_21_161
*612 FILLER_0_21_167
*613 FILLER_0_21_169
*614 FILLER_0_21_181
*615 FILLER_0_21_193
*616 FILLER_0_21_205
*617 FILLER_0_21_217
*618 FILLER_0_21_223
*619 FILLER_0_21_225
*620 FILLER_0_21_237
*621 FILLER_0_21_249
*622 FILLER_0_21_261
*623 FILLER_0_21_27
*624 FILLER_0_21_273
*625 FILLER_0_21_279
*626 FILLER_0_21_281
*627 FILLER_0_21_293
*628 FILLER_0_21_3
*629 FILLER_0_21_305
*630 FILLER_0_21_317
*631 FILLER_0_21_329
*632 FILLER_0_21_39
*633 FILLER_0_21_51
*634 FILLER_0_21_55
*635 FILLER_0_21_57
*636 FILLER_0_21_69
*637 FILLER_0_21_81
*638 FILLER_0_21_93
*639 FILLER_0_22_109
*640 FILLER_0_22_121
*641 FILLER_0_22_133
*642 FILLER_0_22_139
*643 FILLER_0_22_141
*644 FILLER_0_22_15
*645 FILLER_0_22_153
*646 FILLER_0_22_165
*647 FILLER_0_22_177
*648 FILLER_0_22_189
*649 FILLER_0_22_195
*650 FILLER_0_22_197
*651 FILLER_0_22_209
*652 FILLER_0_22_221
*653 FILLER_0_22_233
*654 FILLER_0_22_245
*655 FILLER_0_22_251
*656 FILLER_0_22_253
*657 FILLER_0_22_265
*658 FILLER_0_22_27
*659 FILLER_0_22_277
*660 FILLER_0_22_289
*661 FILLER_0_22_29
*662 FILLER_0_22_3
*663 FILLER_0_22_301
*664 FILLER_0_22_307
*665 FILLER_0_22_309
*666 FILLER_0_22_321
*667 FILLER_0_22_333
*668 FILLER_0_22_41
*669 FILLER_0_22_53
*670 FILLER_0_22_65
*671 FILLER_0_22_77
*672 FILLER_0_22_83
*673 FILLER_0_22_85
*674 FILLER_0_22_97
*675 FILLER_0_23_105
*676 FILLER_0_23_111
*677 FILLER_0_23_113
*678 FILLER_0_23_125
*679 FILLER_0_23_137
*680 FILLER_0_23_149
*681 FILLER_0_23_15
*682 FILLER_0_23_161
*683 FILLER_0_23_167
*684 FILLER_0_23_169
*685 FILLER_0_23_181
*686 FILLER_0_23_193
*687 FILLER_0_23_205
*688 FILLER_0_23_217
*689 FILLER_0_23_223
*690 FILLER_0_23_225
*691 FILLER_0_23_237
*692 FILLER_0_23_249
*693 FILLER_0_23_261
*694 FILLER_0_23_27
*695 FILLER_0_23_273
*696 FILLER_0_23_279
*697 FILLER_0_23_281
*698 FILLER_0_23_293
*699 FILLER_0_23_3
*700 FILLER_0_23_305
*701 FILLER_0_23_317
*702 FILLER_0_23_329
*703 FILLER_0_23_39
*704 FILLER_0_23_51
*705 FILLER_0_23_55
*706 FILLER_0_23_57
*707 FILLER_0_23_69
*708 FILLER_0_23_81
*709 FILLER_0_23_93
*710 FILLER_0_24_109
*711 FILLER_0_24_121
*712 FILLER_0_24_133
*713 FILLER_0_24_139
*714 FILLER_0_24_141
*715 FILLER_0_24_15
*716 FILLER_0_24_153
*717 FILLER_0_24_165
*718 FILLER_0_24_177
*719 FILLER_0_24_189
*720 FILLER_0_24_195
*721 FILLER_0_24_197
*722 FILLER_0_24_209
*723 FILLER_0_24_221
*724 FILLER_0_24_233
*725 FILLER_0_24_245
*726 FILLER_0_24_251
*727 FILLER_0_24_253
*728 FILLER_0_24_265
*729 FILLER_0_24_27
*730 FILLER_0_24_277
*731 FILLER_0_24_289
*732 FILLER_0_24_29
*733 FILLER_0_24_3
*734 FILLER_0_24_301
*735 FILLER_0_24_307
*736 FILLER_0_24_309
*737 FILLER_0_24_321
*738 FILLER_0_24_333
*739 FILLER_0_24_41
*740 FILLER_0_24_53
*741 FILLER_0_24_65
*742 FILLER_0_24_77
*743 FILLER_0_24_83
*744 FILLER_0_24_85
*745 FILLER_0_24_97
*746 FILLER_0_25_105
*747 FILLER_0_25_111
*748 FILLER_0_25_113
*749 FILLER_0_25_125
*750 FILLER_0_25_137
*751 FILLER_0_25_149
*752 FILLER_0_25_15
*753 FILLER_0_25_161
*754 FILLER_0_25_167
*755 FILLER_0_25_169
*756 FILLER_0_25_181
*757 FILLER_0_25_193
*758 FILLER_0_25_205
*759 FILLER_0_25_217
*760 FILLER_0_25_223
*761 FILLER_0_25_225
*762 FILLER_0_25_237
*763 FILLER_0_25_249
*764 FILLER_0_25_261
*765 FILLER_0_25_27
*766 FILLER_0_25_273
*767 FILLER_0_25_279
*768 FILLER_0_25_281
*769 FILLER_0_25_293
*770 FILLER_0_25_3
*771 FILLER_0_25_305
*772 FILLER_0_25_317
*773 FILLER_0_25_329
*774 FILLER_0_25_39
*775 FILLER_0_25_51
*776 FILLER_0_25_55
*777 FILLER_0_25_57
*778 FILLER_0_25_69
*779 FILLER_0_25_81
*780 FILLER_0_25_93
*781 FILLER_0_26_109
*782 FILLER_0_26_121
*783 FILLER_0_26_133
*784 FILLER_0_26_139
*785 FILLER_0_26_141
*786 FILLER_0_26_15
*787 FILLER_0_26_153
*788 FILLER_0_26_165
*789 FILLER_0_26_177
*790 FILLER_0_26_189
*791 FILLER_0_26_195
*792 FILLER_0_26_197
*793 FILLER_0_26_209
*794 FILLER_0_26_221
*795 FILLER_0_26_233
*796 FILLER_0_26_245
*797 FILLER_0_26_251
*798 FILLER_0_26_253
*799 FILLER_0_26_265
*800 FILLER_0_26_27
*801 FILLER_0_26_277
*802 FILLER_0_26_289
*803 FILLER_0_26_29
*804 FILLER_0_26_3
*805 FILLER_0_26_301
*806 FILLER_0_26_307
*807 FILLER_0_26_309
*808 FILLER_0_26_321
*809 FILLER_0_26_333
*810 FILLER_0_26_41
*811 FILLER_0_26_53
*812 FILLER_0_26_65
*813 FILLER_0_26_77
*814 FILLER_0_26_83
*815 FILLER_0_26_85
*816 FILLER_0_26_97
*817 FILLER_0_27_105
*818 FILLER_0_27_111
*819 FILLER_0_27_113
*820 FILLER_0_27_125
*821 FILLER_0_27_137
*822 FILLER_0_27_149
*823 FILLER_0_27_15
*824 FILLER_0_27_161
*825 FILLER_0_27_167
*826 FILLER_0_27_169
*827 FILLER_0_27_181
*828 FILLER_0_27_193
*829 FILLER_0_27_205
*830 FILLER_0_27_217
*831 FILLER_0_27_223
*832 FILLER_0_27_225
*833 FILLER_0_27_237
*834 FILLER_0_27_249
*835 FILLER_0_27_261
*836 FILLER_0_27_27
*837 FILLER_0_27_273
*838 FILLER_0_27_279
*839 FILLER_0_27_281
*840 FILLER_0_27_293
*841 FILLER_0_27_3
*842 FILLER_0_27_305
*843 FILLER_0_27_317
*844 FILLER_0_27_329
*845 FILLER_0_27_39
*846 FILLER_0_27_51
*847 FILLER_0_27_55
*848 FILLER_0_27_57
*849 FILLER_0_27_69
*850 FILLER_0_27_81
*851 FILLER_0_27_93
*852 FILLER_0_28_109
*853 FILLER_0_28_121
*854 FILLER_0_28_133
*855 FILLER_0_28_139
*856 FILLER_0_28_141
*857 FILLER_0_28_15
*858 FILLER_0_28_153
*859 FILLER_0_28_165
*860 FILLER_0_28_177
*861 FILLER_0_28_189
*862 FILLER_0_28_195
*863 FILLER_0_28_197
*864 FILLER_0_28_209
*865 FILLER_0_28_221
*866 FILLER_0_28_233
*867 FILLER_0_28_245
*868 FILLER_0_28_251
*869 FILLER_0_28_253
*870 FILLER_0_28_265
*871 FILLER_0_28_27
*872 FILLER_0_28_277
*873 FILLER_0_28_289
*874 FILLER_0_28_29
*875 FILLER_0_28_3
*876 FILLER_0_28_301
*877 FILLER_0_28_307
*878 FILLER_0_28_309
*879 FILLER_0_28_321
*880 FILLER_0_28_333
*881 FILLER_0_28_41
*882 FILLER_0_28_53
*883 FILLER_0_28_65
*884 FILLER_0_28_77
*885 FILLER_0_28_83
*886 FILLER_0_28_85
*887 FILLER_0_28_97
*888 FILLER_0_29_105
*889 FILLER_0_29_111
*890 FILLER_0_29_113
*891 FILLER_0_29_125
*892 FILLER_0_29_137
*893 FILLER_0_29_149
*894 FILLER_0_29_15
*895 FILLER_0_29_161
*896 FILLER_0_29_167
*897 FILLER_0_29_169
*898 FILLER_0_29_181
*899 FILLER_0_29_193
*900 FILLER_0_29_205
*901 FILLER_0_29_217
*902 FILLER_0_29_223
*903 FILLER_0_29_225
*904 FILLER_0_29_237
*905 FILLER_0_29_249
*906 FILLER_0_29_261
*907 FILLER_0_29_27
*908 FILLER_0_29_273
*909 FILLER_0_29_279
*910 FILLER_0_29_281
*911 FILLER_0_29_293
*912 FILLER_0_29_3
*913 FILLER_0_29_305
*914 FILLER_0_29_317
*915 FILLER_0_29_329
*916 FILLER_0_29_39
*917 FILLER_0_29_51
*918 FILLER_0_29_55
*919 FILLER_0_29_57
*920 FILLER_0_29_69
*921 FILLER_0_29_81
*922 FILLER_0_29_93
*923 FILLER_0_2_109
*924 FILLER_0_2_121
*925 FILLER_0_2_133
*926 FILLER_0_2_139
*927 FILLER_0_2_141
*928 FILLER_0_2_15
*929 FILLER_0_2_153
*930 FILLER_0_2_165
*931 FILLER_0_2_177
*932 FILLER_0_2_189
*933 FILLER_0_2_195
*934 FILLER_0_2_197
*935 FILLER_0_2_209
*936 FILLER_0_2_221
*937 FILLER_0_2_233
*938 FILLER_0_2_245
*939 FILLER_0_2_251
*940 FILLER_0_2_253
*941 FILLER_0_2_265
*942 FILLER_0_2_27
*943 FILLER_0_2_277
*944 FILLER_0_2_289
*945 FILLER_0_2_29
*946 FILLER_0_2_3
*947 FILLER_0_2_301
*948 FILLER_0_2_307
*949 FILLER_0_2_309
*950 FILLER_0_2_321
*951 FILLER_0_2_333
*952 FILLER_0_2_41
*953 FILLER_0_2_53
*954 FILLER_0_2_65
*955 FILLER_0_2_77
*956 FILLER_0_2_83
*957 FILLER_0_2_85
*958 FILLER_0_2_97
*959 FILLER_0_30_109
*960 FILLER_0_30_121
*961 FILLER_0_30_133
*962 FILLER_0_30_139
*963 FILLER_0_30_141
*964 FILLER_0_30_15
*965 FILLER_0_30_153
*966 FILLER_0_30_165
*967 FILLER_0_30_177
*968 FILLER_0_30_189
*969 FILLER_0_30_195
*970 FILLER_0_30_197
*971 FILLER_0_30_209
*972 FILLER_0_30_221
*973 FILLER_0_30_233
*974 FILLER_0_30_245
*975 FILLER_0_30_251
*976 FILLER_0_30_253
*977 FILLER_0_30_265
*978 FILLER_0_30_27
*979 FILLER_0_30_277
*980 FILLER_0_30_289
*981 FILLER_0_30_29
*982 FILLER_0_30_3
*983 FILLER_0_30_301
*984 FILLER_0_30_307
*985 FILLER_0_30_309
*986 FILLER_0_30_321
*987 FILLER_0_30_333
*988 FILLER_0_30_41
*989 FILLER_0_30_53
*990 FILLER_0_30_65
*991 FILLER_0_30_77
*992 FILLER_0_30_83
*993 FILLER_0_30_85
*994 FILLER_0_30_97
*995 FILLER_0_31_105
*996 FILLER_0_31_111
*997 FILLER_0_31_113
*998 FILLER_0_31_125
*999 FILLER_0_31_137
*1000 FILLER_0_31_149
*1001 FILLER_0_31_15
*1002 FILLER_0_31_161
*1003 FILLER_0_31_167
*1004 FILLER_0_31_169
*1005 FILLER_0_31_181
*1006 FILLER_0_31_193
*1007 FILLER_0_31_205
*1008 FILLER_0_31_217
*1009 FILLER_0_31_223
*1010 FILLER_0_31_225
*1011 FILLER_0_31_237
*1012 FILLER_0_31_249
*1013 FILLER_0_31_261
*1014 FILLER_0_31_27
*1015 FILLER_0_31_273
*1016 FILLER_0_31_279
*1017 FILLER_0_31_281
*1018 FILLER_0_31_293
*1019 FILLER_0_31_3
*1020 FILLER_0_31_305
*1021 FILLER_0_31_317
*1022 FILLER_0_31_329
*1023 FILLER_0_31_39
*1024 FILLER_0_31_51
*1025 FILLER_0_31_55
*1026 FILLER_0_31_57
*1027 FILLER_0_31_69
*1028 FILLER_0_31_81
*1029 FILLER_0_31_93
*1030 FILLER_0_32_109
*1031 FILLER_0_32_121
*1032 FILLER_0_32_133
*1033 FILLER_0_32_139
*1034 FILLER_0_32_148
*1035 FILLER_0_32_15
*1036 FILLER_0_32_160
*1037 FILLER_0_32_172
*1038 FILLER_0_32_192
*1039 FILLER_0_32_204
*1040 FILLER_0_32_216
*1041 FILLER_0_32_227
*1042 FILLER_0_32_239
*1043 FILLER_0_32_251
*1044 FILLER_0_32_253
*1045 FILLER_0_32_265
*1046 FILLER_0_32_27
*1047 FILLER_0_32_277
*1048 FILLER_0_32_289
*1049 FILLER_0_32_29
*1050 FILLER_0_32_3
*1051 FILLER_0_32_301
*1052 FILLER_0_32_307
*1053 FILLER_0_32_309
*1054 FILLER_0_32_321
*1055 FILLER_0_32_333
*1056 FILLER_0_32_41
*1057 FILLER_0_32_53
*1058 FILLER_0_32_65
*1059 FILLER_0_32_77
*1060 FILLER_0_32_83
*1061 FILLER_0_32_85
*1062 FILLER_0_32_97
*1063 FILLER_0_33_105
*1064 FILLER_0_33_111
*1065 FILLER_0_33_113
*1066 FILLER_0_33_121
*1067 FILLER_0_33_137
*1068 FILLER_0_33_149
*1069 FILLER_0_33_15
*1070 FILLER_0_33_166
*1071 FILLER_0_33_169
*1072 FILLER_0_33_200
*1073 FILLER_0_33_212
*1074 FILLER_0_33_232
*1075 FILLER_0_33_244
*1076 FILLER_0_33_256
*1077 FILLER_0_33_264
*1078 FILLER_0_33_27
*1079 FILLER_0_33_274
*1080 FILLER_0_33_281
*1081 FILLER_0_33_293
*1082 FILLER_0_33_3
*1083 FILLER_0_33_305
*1084 FILLER_0_33_317
*1085 FILLER_0_33_329
*1086 FILLER_0_33_39
*1087 FILLER_0_33_51
*1088 FILLER_0_33_55
*1089 FILLER_0_33_57
*1090 FILLER_0_33_69
*1091 FILLER_0_33_81
*1092 FILLER_0_33_93
*1093 FILLER_0_34_109
*1094 FILLER_0_34_139
*1095 FILLER_0_34_141
*1096 FILLER_0_34_15
*1097 FILLER_0_34_153
*1098 FILLER_0_34_165
*1099 FILLER_0_34_177
*1100 FILLER_0_34_185
*1101 FILLER_0_34_207
*1102 FILLER_0_34_242
*1103 FILLER_0_34_250
*1104 FILLER_0_34_253
*1105 FILLER_0_34_265
*1106 FILLER_0_34_27
*1107 FILLER_0_34_280
*1108 FILLER_0_34_29
*1109 FILLER_0_34_292
*1110 FILLER_0_34_3
*1111 FILLER_0_34_304
*1112 FILLER_0_34_309
*1113 FILLER_0_34_321
*1114 FILLER_0_34_333
*1115 FILLER_0_34_41
*1116 FILLER_0_34_53
*1117 FILLER_0_34_65
*1118 FILLER_0_34_77
*1119 FILLER_0_34_83
*1120 FILLER_0_34_85
*1121 FILLER_0_34_97
*1122 FILLER_0_35_105
*1123 FILLER_0_35_111
*1124 FILLER_0_35_113
*1125 FILLER_0_35_135
*1126 FILLER_0_35_147
*1127 FILLER_0_35_15
*1128 FILLER_0_35_166
*1129 FILLER_0_35_178
*1130 FILLER_0_35_202
*1131 FILLER_0_35_242
*1132 FILLER_0_35_254
*1133 FILLER_0_35_266
*1134 FILLER_0_35_27
*1135 FILLER_0_35_281
*1136 FILLER_0_35_293
*1137 FILLER_0_35_3
*1138 FILLER_0_35_305
*1139 FILLER_0_35_317
*1140 FILLER_0_35_329
*1141 FILLER_0_35_39
*1142 FILLER_0_35_51
*1143 FILLER_0_35_55
*1144 FILLER_0_35_57
*1145 FILLER_0_35_69
*1146 FILLER_0_35_81
*1147 FILLER_0_35_93
*1148 FILLER_0_36_104
*1149 FILLER_0_36_120
*1150 FILLER_0_36_132
*1151 FILLER_0_36_141
*1152 FILLER_0_36_15
*1153 FILLER_0_36_166
*1154 FILLER_0_36_194
*1155 FILLER_0_36_205
*1156 FILLER_0_36_209
*1157 FILLER_0_36_249
*1158 FILLER_0_36_27
*1159 FILLER_0_36_283
*1160 FILLER_0_36_29
*1161 FILLER_0_36_292
*1162 FILLER_0_36_296
*1163 FILLER_0_36_3
*1164 FILLER_0_36_309
*1165 FILLER_0_36_321
*1166 FILLER_0_36_333
*1167 FILLER_0_36_41
*1168 FILLER_0_36_53
*1169 FILLER_0_36_65
*1170 FILLER_0_36_77
*1171 FILLER_0_36_83
*1172 FILLER_0_36_85
*1173 FILLER_0_37_111
*1174 FILLER_0_37_119
*1175 FILLER_0_37_127
*1176 FILLER_0_37_139
*1177 FILLER_0_37_145
*1178 FILLER_0_37_15
*1179 FILLER_0_37_167
*1180 FILLER_0_37_169
*1181 FILLER_0_37_176
*1182 FILLER_0_37_202
*1183 FILLER_0_37_213
*1184 FILLER_0_37_243
*1185 FILLER_0_37_27
*1186 FILLER_0_37_279
*1187 FILLER_0_37_298
*1188 FILLER_0_37_3
*1189 FILLER_0_37_310
*1190 FILLER_0_37_322
*1191 FILLER_0_37_334
*1192 FILLER_0_37_39
*1193 FILLER_0_37_51
*1194 FILLER_0_37_55
*1195 FILLER_0_37_57
*1196 FILLER_0_37_69
*1197 FILLER_0_37_73
*1198 FILLER_0_37_78
*1199 FILLER_0_37_84
*1200 FILLER_0_37_99
*1201 FILLER_0_38_10
*1202 FILLER_0_38_102
*1203 FILLER_0_38_106
*1204 FILLER_0_38_110
*1205 FILLER_0_38_113
*1206 FILLER_0_38_118
*1207 FILLER_0_38_122
*1208 FILLER_0_38_126
*1209 FILLER_0_38_138
*1210 FILLER_0_38_14
*1211 FILLER_0_38_141
*1212 FILLER_0_38_148
*1213 FILLER_0_38_160
*1214 FILLER_0_38_169
*1215 FILLER_0_38_173
*1216 FILLER_0_38_18
*1217 FILLER_0_38_181
*1218 FILLER_0_38_189
*1219 FILLER_0_38_195
*1220 FILLER_0_38_197
*1221 FILLER_0_38_209
*1222 FILLER_0_38_22
*1223 FILLER_0_38_221
*1224 FILLER_0_38_240
*1225 FILLER_0_38_246
*1226 FILLER_0_38_256
*1227 FILLER_0_38_262
*1228 FILLER_0_38_272
*1229 FILLER_0_38_278
*1230 FILLER_0_38_298
*1231 FILLER_0_38_302
*1232 FILLER_0_38_312
*1233 FILLER_0_38_318
*1234 FILLER_0_38_32
*1235 FILLER_0_38_322
*1236 FILLER_0_38_329
*1237 FILLER_0_38_38
*1238 FILLER_0_38_42
*1239 FILLER_0_38_46
*1240 FILLER_0_38_50
*1241 FILLER_0_38_54
*1242 FILLER_0_38_57
*1243 FILLER_0_38_6
*1244 FILLER_0_38_62
*1245 FILLER_0_38_74
*1246 FILLER_0_38_82
*1247 FILLER_0_38_85
*1248 FILLER_0_38_97
*1249 FILLER_0_3_105
*1250 FILLER_0_3_111
*1251 FILLER_0_3_113
*1252 FILLER_0_3_125
*1253 FILLER_0_3_137
*1254 FILLER_0_3_149
*1255 FILLER_0_3_15
*1256 FILLER_0_3_161
*1257 FILLER_0_3_167
*1258 FILLER_0_3_169
*1259 FILLER_0_3_181
*1260 FILLER_0_3_193
*1261 FILLER_0_3_205
*1262 FILLER_0_3_217
*1263 FILLER_0_3_223
*1264 FILLER_0_3_225
*1265 FILLER_0_3_237
*1266 FILLER_0_3_249
*1267 FILLER_0_3_261
*1268 FILLER_0_3_27
*1269 FILLER_0_3_273
*1270 FILLER_0_3_279
*1271 FILLER_0_3_281
*1272 FILLER_0_3_293
*1273 FILLER_0_3_3
*1274 FILLER_0_3_305
*1275 FILLER_0_3_317
*1276 FILLER_0_3_329
*1277 FILLER_0_3_39
*1278 FILLER_0_3_51
*1279 FILLER_0_3_55
*1280 FILLER_0_3_57
*1281 FILLER_0_3_69
*1282 FILLER_0_3_81
*1283 FILLER_0_3_93
*1284 FILLER_0_4_109
*1285 FILLER_0_4_121
*1286 FILLER_0_4_133
*1287 FILLER_0_4_139
*1288 FILLER_0_4_141
*1289 FILLER_0_4_15
*1290 FILLER_0_4_153
*1291 FILLER_0_4_165
*1292 FILLER_0_4_177
*1293 FILLER_0_4_189
*1294 FILLER_0_4_195
*1295 FILLER_0_4_197
*1296 FILLER_0_4_209
*1297 FILLER_0_4_221
*1298 FILLER_0_4_233
*1299 FILLER_0_4_245
*1300 FILLER_0_4_251
*1301 FILLER_0_4_253
*1302 FILLER_0_4_265
*1303 FILLER_0_4_27
*1304 FILLER_0_4_277
*1305 FILLER_0_4_289
*1306 FILLER_0_4_29
*1307 FILLER_0_4_3
*1308 FILLER_0_4_301
*1309 FILLER_0_4_307
*1310 FILLER_0_4_309
*1311 FILLER_0_4_321
*1312 FILLER_0_4_333
*1313 FILLER_0_4_41
*1314 FILLER_0_4_53
*1315 FILLER_0_4_65
*1316 FILLER_0_4_77
*1317 FILLER_0_4_83
*1318 FILLER_0_4_85
*1319 FILLER_0_4_97
*1320 FILLER_0_5_105
*1321 FILLER_0_5_111
*1322 FILLER_0_5_113
*1323 FILLER_0_5_125
*1324 FILLER_0_5_137
*1325 FILLER_0_5_149
*1326 FILLER_0_5_15
*1327 FILLER_0_5_161
*1328 FILLER_0_5_167
*1329 FILLER_0_5_169
*1330 FILLER_0_5_181
*1331 FILLER_0_5_193
*1332 FILLER_0_5_205
*1333 FILLER_0_5_217
*1334 FILLER_0_5_223
*1335 FILLER_0_5_225
*1336 FILLER_0_5_237
*1337 FILLER_0_5_249
*1338 FILLER_0_5_261
*1339 FILLER_0_5_27
*1340 FILLER_0_5_273
*1341 FILLER_0_5_279
*1342 FILLER_0_5_281
*1343 FILLER_0_5_293
*1344 FILLER_0_5_3
*1345 FILLER_0_5_305
*1346 FILLER_0_5_317
*1347 FILLER_0_5_329
*1348 FILLER_0_5_39
*1349 FILLER_0_5_51
*1350 FILLER_0_5_55
*1351 FILLER_0_5_57
*1352 FILLER_0_5_69
*1353 FILLER_0_5_81
*1354 FILLER_0_5_93
*1355 FILLER_0_6_109
*1356 FILLER_0_6_121
*1357 FILLER_0_6_133
*1358 FILLER_0_6_139
*1359 FILLER_0_6_141
*1360 FILLER_0_6_15
*1361 FILLER_0_6_153
*1362 FILLER_0_6_165
*1363 FILLER_0_6_177
*1364 FILLER_0_6_189
*1365 FILLER_0_6_195
*1366 FILLER_0_6_197
*1367 FILLER_0_6_209
*1368 FILLER_0_6_221
*1369 FILLER_0_6_233
*1370 FILLER_0_6_245
*1371 FILLER_0_6_251
*1372 FILLER_0_6_253
*1373 FILLER_0_6_265
*1374 FILLER_0_6_27
*1375 FILLER_0_6_277
*1376 FILLER_0_6_289
*1377 FILLER_0_6_29
*1378 FILLER_0_6_3
*1379 FILLER_0_6_301
*1380 FILLER_0_6_307
*1381 FILLER_0_6_309
*1382 FILLER_0_6_321
*1383 FILLER_0_6_333
*1384 FILLER_0_6_41
*1385 FILLER_0_6_53
*1386 FILLER_0_6_65
*1387 FILLER_0_6_77
*1388 FILLER_0_6_83
*1389 FILLER_0_6_85
*1390 FILLER_0_6_97
*1391 FILLER_0_7_105
*1392 FILLER_0_7_111
*1393 FILLER_0_7_113
*1394 FILLER_0_7_125
*1395 FILLER_0_7_137
*1396 FILLER_0_7_149
*1397 FILLER_0_7_15
*1398 FILLER_0_7_161
*1399 FILLER_0_7_167
*1400 FILLER_0_7_169
*1401 FILLER_0_7_181
*1402 FILLER_0_7_193
*1403 FILLER_0_7_205
*1404 FILLER_0_7_217
*1405 FILLER_0_7_223
*1406 FILLER_0_7_225
*1407 FILLER_0_7_237
*1408 FILLER_0_7_249
*1409 FILLER_0_7_261
*1410 FILLER_0_7_27
*1411 FILLER_0_7_273
*1412 FILLER_0_7_279
*1413 FILLER_0_7_281
*1414 FILLER_0_7_293
*1415 FILLER_0_7_3
*1416 FILLER_0_7_305
*1417 FILLER_0_7_317
*1418 FILLER_0_7_329
*1419 FILLER_0_7_39
*1420 FILLER_0_7_51
*1421 FILLER_0_7_55
*1422 FILLER_0_7_57
*1423 FILLER_0_7_69
*1424 FILLER_0_7_81
*1425 FILLER_0_7_93
*1426 FILLER_0_8_109
*1427 FILLER_0_8_121
*1428 FILLER_0_8_133
*1429 FILLER_0_8_139
*1430 FILLER_0_8_141
*1431 FILLER_0_8_15
*1432 FILLER_0_8_153
*1433 FILLER_0_8_165
*1434 FILLER_0_8_177
*1435 FILLER_0_8_189
*1436 FILLER_0_8_195
*1437 FILLER_0_8_197
*1438 FILLER_0_8_209
*1439 FILLER_0_8_221
*1440 FILLER_0_8_233
*1441 FILLER_0_8_245
*1442 FILLER_0_8_251
*1443 FILLER_0_8_253
*1444 FILLER_0_8_265
*1445 FILLER_0_8_27
*1446 FILLER_0_8_277
*1447 FILLER_0_8_289
*1448 FILLER_0_8_29
*1449 FILLER_0_8_3
*1450 FILLER_0_8_301
*1451 FILLER_0_8_307
*1452 FILLER_0_8_309
*1453 FILLER_0_8_321
*1454 FILLER_0_8_333
*1455 FILLER_0_8_41
*1456 FILLER_0_8_53
*1457 FILLER_0_8_65
*1458 FILLER_0_8_77
*1459 FILLER_0_8_83
*1460 FILLER_0_8_85
*1461 FILLER_0_8_97
*1462 FILLER_0_9_105
*1463 FILLER_0_9_111
*1464 FILLER_0_9_113
*1465 FILLER_0_9_125
*1466 FILLER_0_9_137
*1467 FILLER_0_9_149
*1468 FILLER_0_9_15
*1469 FILLER_0_9_161
*1470 FILLER_0_9_167
*1471 FILLER_0_9_169
*1472 FILLER_0_9_181
*1473 FILLER_0_9_193
*1474 FILLER_0_9_205
*1475 FILLER_0_9_217
*1476 FILLER_0_9_223
*1477 FILLER_0_9_225
*1478 FILLER_0_9_237
*1479 FILLER_0_9_249
*1480 FILLER_0_9_261
*1481 FILLER_0_9_27
*1482 FILLER_0_9_273
*1483 FILLER_0_9_279
*1484 FILLER_0_9_281
*1485 FILLER_0_9_293
*1486 FILLER_0_9_3
*1487 FILLER_0_9_305
*1488 FILLER_0_9_317
*1489 FILLER_0_9_329
*1490 FILLER_0_9_39
*1491 FILLER_0_9_51
*1492 FILLER_0_9_55