*SPEF "ieee 1481-1999"
*DESIGN "tt_um_mini_aie_2x2"
*DATE "18:34:35 Tuesday May 14, 2024"
*VENDOR "The OpenROAD Project"
*PROGRAM "OpenROAD"
*VERSION "da0053d7b0014ab9c87ea148875ff6c2a0f9b658"
*DESIGN_FLOW "NAME_SCOPE LOCAL" "PIN_CAP NONE"
*DIVIDER /
*DELIMITER :
*BUS_DELIMITER []
*T_UNIT 1 NS
*C_UNIT 1 PF
*R_UNIT 1 OHM
*L_UNIT 1 HENRY

*NAME_MAP
*3 clk
*4 ena
*5 rst_n
*6 ui_in[0]
*7 ui_in[1]
*8 ui_in[2]
*9 ui_in[3]
*10 ui_in[4]
*11 ui_in[5]
*12 ui_in[6]
*13 ui_in[7]
*14 uio_in[0]
*15 uio_in[1]
*16 uio_in[2]
*17 uio_in[3]
*18 uio_in[4]
*19 uio_in[5]
*20 uio_in[6]
*21 uio_in[7]
*22 net53
*23 net54
*24 net55
*25 net56
*26 net57
*27 net58
*28 net59
*29 net60
*30 net45
*31 net46
*32 net47
*33 net48
*34 net49
*35 net50
*36 net51
*37 net52
*38 uo_out[0]
*39 uo_out[1]
*40 uo_out[2]
*41 uo_out[3]
*42 uo_out[4]
*43 uo_out[5]
*44 uo_out[6]
*45 uo_out[7]
*46 _0000_
*47 _0001_
*48 _0002_
*49 _0003_
*50 _0004_
*51 _0005_
*52 _0006_
*53 _0007_
*54 _0008_
*55 _0009_
*56 _0010_
*57 _0011_
*58 _0012_
*59 _0013_
*60 _0014_
*61 _0015_
*62 _0016_
*63 _0017_
*64 _0018_
*65 _0019_
*66 _0020_
*67 _0021_
*68 _0022_
*69 _0023_
*70 _0024_
*71 _0025_
*72 _0026_
*73 _0027_
*74 _0028_
*75 _0029_
*76 _0030_
*77 _0031_
*78 _0032_
*79 _0033_
*80 _0034_
*81 _0035_
*82 _0036_
*83 _0037_
*84 _0038_
*85 _0039_
*86 _0040_
*87 _0041_
*88 _0042_
*89 _0043_
*90 _0044_
*91 _0045_
*92 _0046_
*93 _0047_
*94 _0048_
*95 _0049_
*96 _0050_
*97 _0051_
*98 _0052_
*99 _0053_
*100 _0054_
*101 _0055_
*102 _0056_
*103 _0057_
*104 _0058_
*105 _0059_
*106 _0060_
*107 _0061_
*108 _0062_
*109 _0063_
*110 _0064_
*111 _0065_
*112 _0066_
*113 _0067_
*114 _0068_
*115 _0069_
*116 _0070_
*117 _0071_
*118 _0072_
*119 _0073_
*120 _0074_
*121 _0075_
*122 _0076_
*123 _0077_
*124 _0078_
*125 _0079_
*126 _0080_
*127 _0081_
*128 _0082_
*129 _0083_
*130 _0084_
*131 _0085_
*132 _0086_
*133 _0087_
*134 _0088_
*135 _0089_
*136 _0090_
*137 _0091_
*138 _0092_
*139 _0093_
*140 _0094_
*141 _0095_
*142 _0096_
*143 _0097_
*144 _0098_
*145 _0099_
*146 _0100_
*147 _0101_
*148 _0102_
*149 _0103_
*150 _0104_
*151 _0105_
*152 _0106_
*153 _0107_
*154 _0108_
*155 _0109_
*156 _0110_
*157 _0111_
*158 _0112_
*159 _0113_
*160 _0114_
*161 _0115_
*162 _0116_
*163 _0117_
*164 _0118_
*165 _0119_
*166 _0120_
*167 _0121_
*168 _0122_
*169 _0123_
*170 _0124_
*171 _0125_
*172 _0126_
*173 _0127_
*174 _0128_
*175 _0129_
*176 _0130_
*177 _0131_
*178 _0132_
*179 _0133_
*180 _0134_
*181 _0135_
*182 _0136_
*183 _0137_
*184 _0138_
*185 _0139_
*186 _0140_
*187 _0141_
*188 _0142_
*189 _0143_
*190 _0144_
*191 _0145_
*192 _0146_
*193 _0147_
*194 _0148_
*195 _0149_
*196 _0150_
*197 _0151_
*198 _0152_
*199 _0153_
*200 _0154_
*201 _0155_
*202 _0156_
*203 _0157_
*204 _0158_
*205 _0159_
*206 _0160_
*207 _0161_
*208 _0162_
*209 _0163_
*210 _0164_
*211 _0165_
*212 _0166_
*213 _0167_
*214 _0168_
*215 _0169_
*216 _0170_
*217 _0171_
*218 _0172_
*219 _0173_
*220 _0174_
*221 _0175_
*222 _0176_
*223 _0177_
*224 _0178_
*225 _0179_
*226 _0180_
*227 _0181_
*228 _0182_
*229 _0183_
*230 _0184_
*231 _0185_
*232 _0186_
*233 _0187_
*234 _0188_
*235 _0189_
*236 _0190_
*237 _0191_
*238 _0192_
*239 _0193_
*240 _0194_
*241 _0195_
*242 _0196_
*243 _0197_
*244 _0198_
*245 _0199_
*246 _0200_
*247 _0201_
*248 _0202_
*249 _0203_
*250 _0204_
*251 _0205_
*252 _0206_
*253 _0207_
*254 _0208_
*255 _0209_
*256 _0210_
*257 _0211_
*258 _0212_
*259 _0213_
*260 _0214_
*261 _0215_
*262 _0216_
*263 _0217_
*264 _0218_
*265 _0219_
*266 _0220_
*267 _0221_
*268 _0222_
*269 _0223_
*270 _0224_
*271 _0225_
*272 _0226_
*273 _0227_
*274 _0228_
*275 _0229_
*276 _0230_
*277 _0231_
*278 _0232_
*279 _0233_
*280 _0234_
*281 _0235_
*282 _0236_
*283 _0237_
*284 _0238_
*285 _0239_
*286 _0240_
*287 _0241_
*288 _0242_
*289 _0243_
*290 _0244_
*291 _0245_
*292 _0246_
*293 _0247_
*294 _0248_
*295 _0249_
*296 _0250_
*297 _0251_
*298 _0252_
*299 _0253_
*300 _0254_
*301 _0255_
*302 _0256_
*303 _0257_
*304 _0258_
*305 _0259_
*306 _0260_
*307 _0261_
*308 _0262_
*309 _0263_
*310 _0264_
*311 _0265_
*312 _0266_
*313 _0267_
*314 _0268_
*315 _0269_
*316 _0270_
*317 _0271_
*318 _0272_
*319 _0273_
*320 _0274_
*321 _0275_
*322 _0276_
*323 _0277_
*324 _0278_
*325 _0279_
*326 _0280_
*327 _0281_
*328 _0282_
*329 _0283_
*330 _0284_
*331 _0285_
*332 _0286_
*333 _0287_
*334 _0288_
*335 _0289_
*336 _0290_
*337 _0291_
*338 _0292_
*339 _0293_
*340 _0294_
*341 _0295_
*342 _0296_
*343 _0297_
*344 _0298_
*345 _0299_
*346 _0300_
*347 _0301_
*348 _0302_
*349 _0303_
*350 _0304_
*351 _0305_
*352 _0306_
*353 _0307_
*354 _0308_
*355 _0309_
*356 _0310_
*357 _0311_
*358 _0312_
*359 _0313_
*360 _0314_
*361 _0315_
*362 _0316_
*363 _0317_
*364 _0318_
*365 _0319_
*366 _0320_
*367 _0321_
*368 _0322_
*369 _0323_
*370 _0324_
*371 _0325_
*372 _0326_
*373 _0327_
*374 _0328_
*375 _0329_
*376 _0330_
*377 _0331_
*378 _0332_
*379 _0333_
*380 _0334_
*381 _0335_
*382 _0336_
*383 _0337_
*384 _0338_
*385 _0339_
*386 _0340_
*387 _0341_
*388 _0342_
*389 _0343_
*390 _0344_
*391 _0345_
*392 _0346_
*393 _0347_
*394 _0348_
*395 _0349_
*396 _0350_
*397 _0351_
*398 _0352_
*399 _0353_
*400 _0354_
*401 _0355_
*402 _0356_
*403 _0357_
*404 _0358_
*405 _0359_
*406 _0360_
*407 _0361_
*408 _0362_
*409 _0363_
*410 _0364_
*411 _0365_
*412 _0366_
*413 _0367_
*414 _0368_
*415 _0369_
*416 _0370_
*417 _0371_
*418 _0372_
*419 _0373_
*420 _0374_
*421 _0375_
*422 _0376_
*423 _0377_
*424 _0378_
*425 _0379_
*426 _0380_
*427 _0381_
*428 _0382_
*429 _0383_
*430 _0384_
*431 _0385_
*432 _0386_
*433 _0387_
*434 _0388_
*435 _0389_
*436 _0390_
*437 _0391_
*438 _0392_
*439 _0393_
*440 _0394_
*441 _0395_
*442 _0396_
*443 _0397_
*444 _0398_
*445 _0399_
*446 _0400_
*447 _0401_
*448 _0402_
*449 _0403_
*450 _0404_
*451 _0405_
*452 _0406_
*453 _0407_
*454 _0408_
*455 _0409_
*456 _0410_
*457 _0411_
*458 _0412_
*459 _0413_
*460 _0414_
*461 _0415_
*462 _0416_
*463 _0417_
*464 _0418_
*465 _0419_
*466 _0420_
*467 _0421_
*468 _0422_
*469 _0423_
*470 _0424_
*471 _0425_
*472 _0426_
*473 _0427_
*474 _0428_
*475 _0429_
*476 _0430_
*477 _0431_
*478 _0432_
*479 _0433_
*480 _0434_
*481 _0435_
*482 _0436_
*483 _0437_
*484 _0438_
*485 _0439_
*486 _0440_
*487 _0441_
*488 _0442_
*489 _0443_
*490 _0444_
*491 _0445_
*492 _0446_
*493 _0447_
*494 _0448_
*495 _0449_
*496 _0450_
*497 _0451_
*498 _0452_
*499 _0453_
*500 _0454_
*501 _0455_
*502 _0456_
*503 _0457_
*504 _0458_
*505 _0459_
*506 _0460_
*507 _0461_
*508 _0462_
*509 _0463_
*510 _0464_
*511 _0465_
*512 _0466_
*513 _0467_
*514 _0468_
*515 _0469_
*516 _0470_
*517 _0471_
*518 _0472_
*519 _0473_
*520 _0474_
*521 _0475_
*522 _0476_
*523 _0477_
*524 _0478_
*525 _0479_
*526 _0480_
*527 _0481_
*528 _0482_
*529 _0483_
*530 _0484_
*531 _0485_
*532 _0486_
*533 _0487_
*534 _0488_
*535 _0489_
*536 _0490_
*537 _0491_
*538 _0492_
*539 _0493_
*540 _0494_
*541 _0495_
*542 _0496_
*543 _0497_
*544 _0498_
*545 _0499_
*546 _0500_
*547 _0501_
*548 _0502_
*549 _0503_
*550 _0504_
*551 _0505_
*552 _0506_
*553 _0507_
*554 _0508_
*555 _0509_
*556 _0510_
*557 _0511_
*558 _0512_
*559 _0513_
*560 _0514_
*561 _0515_
*562 _0516_
*563 _0517_
*564 _0518_
*565 _0519_
*566 _0520_
*567 _0521_
*568 _0522_
*569 _0523_
*570 _0524_
*571 _0525_
*572 _0526_
*573 _0527_
*574 _0528_
*575 _0529_
*576 _0530_
*577 _0531_
*578 _0532_
*579 _0533_
*580 _0534_
*581 _0535_
*582 _0536_
*583 _0537_
*584 _0538_
*585 _0539_
*586 _0540_
*587 _0541_
*588 _0542_
*589 _0543_
*590 _0544_
*591 _0545_
*592 _0546_
*593 _0547_
*594 _0548_
*595 _0549_
*596 _0550_
*597 _0551_
*598 _0552_
*599 _0553_
*600 _0554_
*601 _0555_
*602 _0556_
*603 _0557_
*604 _0558_
*605 _0559_
*606 _0560_
*607 _0561_
*608 _0562_
*609 _0563_
*610 _0564_
*611 _0565_
*612 _0566_
*613 _0567_
*614 _0568_
*615 _0569_
*616 _0570_
*617 _0571_
*618 _0572_
*619 _0573_
*620 _0574_
*621 _0575_
*622 _0576_
*623 _0577_
*624 _0578_
*625 _0579_
*626 _0580_
*627 _0581_
*628 _0582_
*629 _0583_
*630 _0584_
*631 _0585_
*632 _0586_
*633 _0587_
*634 _0588_
*635 _0589_
*636 _0590_
*637 _0591_
*638 _0592_
*639 _0593_
*640 _0594_
*641 _0595_
*642 _0596_
*643 _0597_
*644 _0598_
*645 _0599_
*646 _0600_
*647 _0601_
*648 _0602_
*649 _0603_
*650 _0604_
*651 _0605_
*652 _0606_
*653 _0607_
*654 _0608_
*655 _0609_
*656 _0610_
*657 _0611_
*658 _0612_
*659 _0613_
*660 _0614_
*661 _0615_
*662 _0616_
*663 _0617_
*664 _0618_
*665 _0619_
*666 _0620_
*667 _0621_
*668 _0622_
*669 _0623_
*670 _0624_
*671 _0625_
*672 _0626_
*673 _0627_
*674 _0628_
*675 _0629_
*676 _0630_
*677 _0631_
*678 _0632_
*679 _0633_
*680 _0634_
*681 _0635_
*682 _0636_
*683 _0637_
*684 _0638_
*685 _0639_
*686 _0640_
*687 _0641_
*688 _0642_
*689 _0643_
*690 _0644_
*691 _0645_
*692 _0646_
*693 _0647_
*694 _0648_
*695 _0649_
*696 _0650_
*697 _0651_
*698 _0652_
*699 _0653_
*700 _0654_
*701 _0655_
*702 _0656_
*703 _0657_
*704 _0658_
*705 _0659_
*706 _0660_
*707 _0661_
*708 _0662_
*709 _0663_
*710 _0664_
*711 _0665_
*712 _0666_
*713 _0667_
*714 _0668_
*715 _0669_
*716 _0670_
*717 _0671_
*718 _0672_
*719 _0673_
*720 _0674_
*721 _0675_
*722 _0676_
*723 _0677_
*724 _0678_
*725 _0679_
*726 _0680_
*727 _0681_
*728 _0682_
*729 _0683_
*730 _0684_
*731 _0685_
*732 _0686_
*733 _0687_
*734 _0688_
*735 _0689_
*736 _0690_
*737 _0691_
*738 _0692_
*739 _0693_
*740 _0694_
*741 _0695_
*742 _0696_
*743 _0697_
*744 _0698_
*745 _0699_
*746 _0700_
*747 _0701_
*748 _0702_
*749 _0703_
*750 _0704_
*751 _0705_
*752 _0706_
*753 _0707_
*754 _0708_
*755 _0709_
*756 _0710_
*757 _0711_
*758 _0712_
*759 _0713_
*760 _0714_
*761 _0715_
*762 _0716_
*763 _0717_
*764 _0718_
*765 _0719_
*766 _0720_
*767 _0721_
*768 _0722_
*769 _0723_
*770 _0724_
*771 _0725_
*772 _0726_
*773 _0727_
*774 _0728_
*775 _0729_
*776 _0730_
*777 _0731_
*778 _0732_
*779 _0733_
*780 _0734_
*781 _0735_
*782 _0736_
*783 _0737_
*784 _0738_
*785 _0739_
*786 _0740_
*787 _0741_
*788 _0742_
*789 _0743_
*790 _0744_
*791 _0745_
*792 _0746_
*793 _0747_
*794 _0748_
*795 _0749_
*796 _0750_
*797 _0751_
*798 _0752_
*799 _0753_
*800 _0754_
*801 _0755_
*802 _0756_
*803 _0757_
*804 _0758_
*805 _0759_
*806 _0760_
*807 _0761_
*808 _0762_
*809 _0763_
*810 _0764_
*811 _0765_
*812 _0766_
*813 _0767_
*814 _0768_
*815 _0769_
*816 _0770_
*817 _0771_
*818 _0772_
*819 _0773_
*820 _0774_
*821 _0775_
*822 _0776_
*823 _0777_
*824 _0778_
*825 _0779_
*826 _0780_
*827 _0781_
*828 _0782_
*829 _0783_
*830 _0784_
*831 _0785_
*832 _0786_
*833 _0787_
*834 _0788_
*835 _0789_
*836 _0790_
*837 _0791_
*838 _0792_
*839 _0793_
*840 _0794_
*841 _0795_
*842 _0796_
*843 _0797_
*844 _0798_
*845 _0799_
*846 _0800_
*847 _0801_
*848 _0802_
*849 _0803_
*850 _0804_
*851 _0805_
*852 _0806_
*853 _0807_
*854 _0808_
*855 _0809_
*856 _0810_
*857 _0811_
*858 _0812_
*859 _0813_
*860 _0814_
*861 _0815_
*862 _0816_
*863 _0817_
*864 _0818_
*865 _0819_
*866 _0820_
*867 _0821_
*868 _0822_
*869 _0823_
*870 _0824_
*871 _0825_
*872 _0826_
*873 _0827_
*874 _0828_
*875 _0829_
*876 _0830_
*877 _0831_
*878 _0832_
*879 _0833_
*880 _0834_
*881 _0835_
*882 _0836_
*883 _0837_
*884 _0838_
*885 _0839_
*886 _0840_
*887 _0841_
*888 _0842_
*889 _0843_
*890 _0844_
*891 _0845_
*892 _0846_
*893 _0847_
*894 _0848_
*895 _0849_
*896 _0850_
*897 _0851_
*898 _0852_
*899 _0853_
*900 _0854_
*901 _0855_
*902 _0856_
*903 _0857_
*904 _0858_
*905 _0859_
*906 _0860_
*907 _0861_
*908 _0862_
*909 _0863_
*910 _0864_
*911 _0865_
*912 _0866_
*913 _0867_
*914 _0868_
*915 _0869_
*916 _0870_
*917 _0871_
*918 _0872_
*919 _0873_
*920 _0874_
*921 _0875_
*922 _0876_
*923 _0877_
*924 _0878_
*925 _0879_
*926 _0880_
*927 _0881_
*928 clknet_0_clk
*929 clknet_1_0__leaf_clk
*930 clknet_1_1__leaf_clk
*931 clknet_leaf_0_clk
*932 clknet_leaf_10_clk
*933 clknet_leaf_11_clk
*934 clknet_leaf_12_clk
*935 clknet_leaf_13_clk
*936 clknet_leaf_14_clk
*937 clknet_leaf_15_clk
*938 clknet_leaf_16_clk
*939 clknet_leaf_17_clk
*940 clknet_leaf_18_clk
*941 clknet_leaf_19_clk
*942 clknet_leaf_1_clk
*943 clknet_leaf_20_clk
*944 clknet_leaf_21_clk
*945 clknet_leaf_22_clk
*946 clknet_leaf_23_clk
*947 clknet_leaf_2_clk
*948 clknet_leaf_3_clk
*949 clknet_leaf_4_clk
*950 clknet_leaf_5_clk
*951 clknet_leaf_6_clk
*952 clknet_leaf_7_clk
*953 clknet_leaf_8_clk
*954 clknet_leaf_9_clk
*955 gen\[0\]\.genblk1\.fifo\.data_out\[0\]
*956 gen\[0\]\.genblk1\.fifo\.data_out\[1\]
*957 gen\[0\]\.genblk1\.fifo\.data_out\[2\]
*958 gen\[0\]\.genblk1\.fifo\.data_out\[3\]
*959 gen\[0\]\.genblk1\.fifo\.data_out\[4\]
*960 gen\[0\]\.genblk1\.fifo\.data_out\[5\]
*961 gen\[0\]\.genblk1\.fifo\.data_out\[6\]
*962 gen\[0\]\.genblk1\.fifo\.data_out\[7\]
*963 gen\[0\]\.genblk1\.fifo\.fifo\[0\]\[0\]
*964 gen\[0\]\.genblk1\.fifo\.fifo\[0\]\[1\]
*965 gen\[0\]\.genblk1\.fifo\.fifo\[0\]\[2\]
*966 gen\[0\]\.genblk1\.fifo\.fifo\[0\]\[3\]
*967 gen\[0\]\.genblk1\.fifo\.fifo\[0\]\[4\]
*968 gen\[0\]\.genblk1\.fifo\.fifo\[0\]\[5\]
*969 gen\[0\]\.genblk1\.fifo\.fifo\[0\]\[6\]
*970 gen\[0\]\.genblk1\.fifo\.fifo\[0\]\[7\]
*971 gen\[0\]\.genblk1\.fifo\.fifo\[1\]\[0\]
*972 gen\[0\]\.genblk1\.fifo\.fifo\[1\]\[1\]
*973 gen\[0\]\.genblk1\.fifo\.fifo\[1\]\[2\]
*974 gen\[0\]\.genblk1\.fifo\.fifo\[1\]\[3\]
*975 gen\[0\]\.genblk1\.fifo\.fifo\[1\]\[4\]
*976 gen\[0\]\.genblk1\.fifo\.fifo\[1\]\[5\]
*977 gen\[0\]\.genblk1\.fifo\.fifo\[1\]\[6\]
*978 gen\[0\]\.genblk1\.fifo\.fifo\[1\]\[7\]
*979 gen\[0\]\.genblk1\.fifo\.r_ptr
*980 gen\[0\]\.genblk1\.fifo\.w_ptr
*981 gen\[0\]\.pe\.has_next_core
*982 gen\[0\]\.pe\.next_pe_data_out\[0\]
*983 gen\[0\]\.pe\.next_pe_data_out\[1\]
*984 gen\[0\]\.pe\.next_pe_data_out\[2\]
*985 gen\[0\]\.pe\.next_pe_data_out\[3\]
*986 gen\[0\]\.pe\.next_pe_data_out\[4\]
*987 gen\[0\]\.pe\.next_pe_data_out\[5\]
*988 gen\[0\]\.pe\.next_pe_data_out\[6\]
*989 gen\[0\]\.pe\.next_pe_data_out\[7\]
*990 gen\[0\]\.pe\.prev_pe_data_in\[0\]
*991 gen\[0\]\.pe\.prev_pe_data_in\[1\]
*992 gen\[0\]\.pe\.prev_pe_data_in\[2\]
*993 gen\[0\]\.pe\.prev_pe_data_in\[3\]
*994 gen\[0\]\.pe\.prev_pe_data_in\[4\]
*995 gen\[0\]\.pe\.prev_pe_data_in\[5\]
*996 gen\[0\]\.pe\.prev_pe_data_in\[6\]
*997 gen\[0\]\.pe\.prev_pe_data_in\[7\]
*998 gen\[0\]\.pe\.switch_data_in\[0\]
*999 gen\[0\]\.pe\.switch_data_in\[1\]
*1000 gen\[0\]\.pe\.switch_data_in\[2\]
*1001 gen\[0\]\.pe\.switch_data_in\[3\]
*1002 gen\[0\]\.pe\.switch_data_in\[4\]
*1003 gen\[0\]\.pe\.switch_data_in\[5\]
*1004 gen\[0\]\.pe\.switch_data_in\[6\]
*1005 gen\[0\]\.pe\.switch_data_in\[7\]
*1006 gen\[0\]\.pe\.switch_data_out\[0\]
*1007 gen\[0\]\.pe\.switch_data_out\[1\]
*1008 gen\[0\]\.pe\.switch_data_out\[2\]
*1009 gen\[0\]\.pe\.switch_data_out\[3\]
*1010 gen\[0\]\.pe\.switch_data_out\[4\]
*1011 gen\[0\]\.pe\.switch_data_out\[5\]
*1012 gen\[0\]\.pe\.switch_data_out\[6\]
*1013 gen\[0\]\.pe\.switch_data_out\[7\]
*1014 gen\[0\]\.pe\.weight\[0\]
*1015 gen\[0\]\.pe\.weight\[1\]
*1016 gen\[0\]\.pe\.weight\[2\]
*1017 gen\[0\]\.pe\.weight\[3\]
*1018 gen\[0\]\.switch\.prev_pe_fifo_in\[0\]
*1019 gen\[0\]\.switch\.prev_pe_fifo_in\[1\]
*1020 gen\[0\]\.switch\.prev_pe_fifo_in\[2\]
*1021 gen\[0\]\.switch\.prev_pe_fifo_in\[3\]
*1022 gen\[0\]\.switch\.prev_pe_fifo_in\[4\]
*1023 gen\[0\]\.switch\.prev_pe_fifo_in\[5\]
*1024 gen\[0\]\.switch\.prev_pe_fifo_in\[6\]
*1025 gen\[0\]\.switch\.prev_pe_fifo_in\[7\]
*1026 gen\[0\]\.switch\.prev_switch_fifo_in\[0\]
*1027 gen\[0\]\.switch\.prev_switch_fifo_in\[1\]
*1028 gen\[0\]\.switch\.prev_switch_fifo_in\[2\]
*1029 gen\[0\]\.switch\.prev_switch_fifo_in\[3\]
*1030 gen\[0\]\.switch\.prev_switch_fifo_in\[4\]
*1031 gen\[0\]\.switch\.prev_switch_fifo_in\[5\]
*1032 gen\[0\]\.switch\.prev_switch_fifo_in\[6\]
*1033 gen\[0\]\.switch\.prev_switch_fifo_in\[7\]
*1034 gen\[0\]\.switch\.switch_fifo_out\[0\]
*1035 gen\[0\]\.switch\.switch_fifo_out\[1\]
*1036 gen\[0\]\.switch\.switch_fifo_out\[2\]
*1037 gen\[0\]\.switch\.switch_fifo_out\[3\]
*1038 gen\[0\]\.switch\.switch_fifo_out\[4\]
*1039 gen\[0\]\.switch\.switch_fifo_out\[5\]
*1040 gen\[0\]\.switch\.switch_fifo_out\[6\]
*1041 gen\[0\]\.switch\.switch_fifo_out\[7\]
*1042 gen\[1\]\.genblk1\.fifo\.data_out\[0\]
*1043 gen\[1\]\.genblk1\.fifo\.data_out\[1\]
*1044 gen\[1\]\.genblk1\.fifo\.data_out\[2\]
*1045 gen\[1\]\.genblk1\.fifo\.data_out\[3\]
*1046 gen\[1\]\.genblk1\.fifo\.data_out\[4\]
*1047 gen\[1\]\.genblk1\.fifo\.data_out\[5\]
*1048 gen\[1\]\.genblk1\.fifo\.data_out\[6\]
*1049 gen\[1\]\.genblk1\.fifo\.data_out\[7\]
*1050 gen\[1\]\.genblk1\.fifo\.fifo\[0\]\[0\]
*1051 gen\[1\]\.genblk1\.fifo\.fifo\[0\]\[1\]
*1052 gen\[1\]\.genblk1\.fifo\.fifo\[0\]\[2\]
*1053 gen\[1\]\.genblk1\.fifo\.fifo\[0\]\[3\]
*1054 gen\[1\]\.genblk1\.fifo\.fifo\[0\]\[4\]
*1055 gen\[1\]\.genblk1\.fifo\.fifo\[0\]\[5\]
*1056 gen\[1\]\.genblk1\.fifo\.fifo\[0\]\[6\]
*1057 gen\[1\]\.genblk1\.fifo\.fifo\[0\]\[7\]
*1058 gen\[1\]\.genblk1\.fifo\.fifo\[1\]\[0\]
*1059 gen\[1\]\.genblk1\.fifo\.fifo\[1\]\[1\]
*1060 gen\[1\]\.genblk1\.fifo\.fifo\[1\]\[2\]
*1061 gen\[1\]\.genblk1\.fifo\.fifo\[1\]\[3\]
*1062 gen\[1\]\.genblk1\.fifo\.fifo\[1\]\[4\]
*1063 gen\[1\]\.genblk1\.fifo\.fifo\[1\]\[5\]
*1064 gen\[1\]\.genblk1\.fifo\.fifo\[1\]\[6\]
*1065 gen\[1\]\.genblk1\.fifo\.fifo\[1\]\[7\]
*1066 gen\[1\]\.genblk1\.fifo\.r_ptr
*1067 gen\[1\]\.genblk1\.fifo\.w_ptr
*1068 gen\[1\]\.pe\.has_next_core
*1069 gen\[1\]\.pe\.prev_pe_data_in\[0\]
*1070 gen\[1\]\.pe\.prev_pe_data_in\[1\]
*1071 gen\[1\]\.pe\.prev_pe_data_in\[2\]
*1072 gen\[1\]\.pe\.prev_pe_data_in\[3\]
*1073 gen\[1\]\.pe\.prev_pe_data_in\[4\]
*1074 gen\[1\]\.pe\.prev_pe_data_in\[5\]
*1075 gen\[1\]\.pe\.prev_pe_data_in\[6\]
*1076 gen\[1\]\.pe\.prev_pe_data_in\[7\]
*1077 gen\[1\]\.pe\.switch_data_in\[0\]
*1078 gen\[1\]\.pe\.switch_data_in\[1\]
*1079 gen\[1\]\.pe\.switch_data_in\[2\]
*1080 gen\[1\]\.pe\.switch_data_in\[3\]
*1081 gen\[1\]\.pe\.switch_data_in\[4\]
*1082 gen\[1\]\.pe\.switch_data_in\[5\]
*1083 gen\[1\]\.pe\.switch_data_in\[6\]
*1084 gen\[1\]\.pe\.switch_data_in\[7\]
*1085 gen\[1\]\.pe\.switch_data_out\[0\]
*1086 gen\[1\]\.pe\.switch_data_out\[1\]
*1087 gen\[1\]\.pe\.switch_data_out\[2\]
*1088 gen\[1\]\.pe\.switch_data_out\[3\]
*1089 gen\[1\]\.pe\.switch_data_out\[4\]
*1090 gen\[1\]\.pe\.switch_data_out\[5\]
*1091 gen\[1\]\.pe\.switch_data_out\[6\]
*1092 gen\[1\]\.pe\.switch_data_out\[7\]
*1093 gen\[1\]\.pe\.weight\[0\]
*1094 gen\[1\]\.pe\.weight\[1\]
*1095 gen\[1\]\.pe\.weight\[2\]
*1096 gen\[1\]\.pe\.weight\[3\]
*1097 gen\[1\]\.switch\.prev_pe_fifo_in\[0\]
*1098 gen\[1\]\.switch\.prev_pe_fifo_in\[1\]
*1099 gen\[1\]\.switch\.prev_pe_fifo_in\[2\]
*1100 gen\[1\]\.switch\.prev_pe_fifo_in\[3\]
*1101 gen\[1\]\.switch\.prev_pe_fifo_in\[4\]
*1102 gen\[1\]\.switch\.prev_pe_fifo_in\[5\]
*1103 gen\[1\]\.switch\.prev_pe_fifo_in\[6\]
*1104 gen\[1\]\.switch\.prev_pe_fifo_in\[7\]
*1105 gen\[1\]\.switch\.prev_switch_fifo_in\[0\]
*1106 gen\[1\]\.switch\.prev_switch_fifo_in\[1\]
*1107 gen\[1\]\.switch\.prev_switch_fifo_in\[2\]
*1108 gen\[1\]\.switch\.prev_switch_fifo_in\[3\]
*1109 gen\[1\]\.switch\.prev_switch_fifo_in\[4\]
*1110 gen\[1\]\.switch\.prev_switch_fifo_in\[5\]
*1111 gen\[1\]\.switch\.prev_switch_fifo_in\[6\]
*1112 gen\[1\]\.switch\.prev_switch_fifo_in\[7\]
*1113 gen\[1\]\.switch\.switch_fifo_out\[0\]
*1114 gen\[1\]\.switch\.switch_fifo_out\[1\]
*1115 gen\[1\]\.switch\.switch_fifo_out\[2\]
*1116 gen\[1\]\.switch\.switch_fifo_out\[3\]
*1117 gen\[1\]\.switch\.switch_fifo_out\[4\]
*1118 gen\[1\]\.switch\.switch_fifo_out\[5\]
*1119 gen\[1\]\.switch\.switch_fifo_out\[6\]
*1120 gen\[1\]\.switch\.switch_fifo_out\[7\]
*1121 gen\[2\]\.genblk1\.fifo\.data_out\[0\]
*1122 gen\[2\]\.genblk1\.fifo\.data_out\[1\]
*1123 gen\[2\]\.genblk1\.fifo\.data_out\[2\]
*1124 gen\[2\]\.genblk1\.fifo\.data_out\[3\]
*1125 gen\[2\]\.genblk1\.fifo\.data_out\[4\]
*1126 gen\[2\]\.genblk1\.fifo\.data_out\[5\]
*1127 gen\[2\]\.genblk1\.fifo\.data_out\[6\]
*1128 gen\[2\]\.genblk1\.fifo\.data_out\[7\]
*1129 gen\[2\]\.genblk1\.fifo\.fifo\[0\]\[0\]
*1130 gen\[2\]\.genblk1\.fifo\.fifo\[0\]\[1\]
*1131 gen\[2\]\.genblk1\.fifo\.fifo\[0\]\[2\]
*1132 gen\[2\]\.genblk1\.fifo\.fifo\[0\]\[3\]
*1133 gen\[2\]\.genblk1\.fifo\.fifo\[0\]\[4\]
*1134 gen\[2\]\.genblk1\.fifo\.fifo\[0\]\[5\]
*1135 gen\[2\]\.genblk1\.fifo\.fifo\[0\]\[6\]
*1136 gen\[2\]\.genblk1\.fifo\.fifo\[0\]\[7\]
*1137 gen\[2\]\.genblk1\.fifo\.fifo\[1\]\[0\]
*1138 gen\[2\]\.genblk1\.fifo\.fifo\[1\]\[1\]
*1139 gen\[2\]\.genblk1\.fifo\.fifo\[1\]\[2\]
*1140 gen\[2\]\.genblk1\.fifo\.fifo\[1\]\[3\]
*1141 gen\[2\]\.genblk1\.fifo\.fifo\[1\]\[4\]
*1142 gen\[2\]\.genblk1\.fifo\.fifo\[1\]\[5\]
*1143 gen\[2\]\.genblk1\.fifo\.fifo\[1\]\[6\]
*1144 gen\[2\]\.genblk1\.fifo\.fifo\[1\]\[7\]
*1145 gen\[2\]\.genblk1\.fifo\.r_ptr
*1146 gen\[2\]\.genblk1\.fifo\.w_ptr
*1147 gen\[2\]\.pe\.has_next_core
*1148 gen\[2\]\.pe\.prev_pe_data_in\[0\]
*1149 gen\[2\]\.pe\.prev_pe_data_in\[1\]
*1150 gen\[2\]\.pe\.prev_pe_data_in\[2\]
*1151 gen\[2\]\.pe\.prev_pe_data_in\[3\]
*1152 gen\[2\]\.pe\.prev_pe_data_in\[4\]
*1153 gen\[2\]\.pe\.prev_pe_data_in\[5\]
*1154 gen\[2\]\.pe\.prev_pe_data_in\[6\]
*1155 gen\[2\]\.pe\.prev_pe_data_in\[7\]
*1156 gen\[2\]\.pe\.switch_data_in\[0\]
*1157 gen\[2\]\.pe\.switch_data_in\[1\]
*1158 gen\[2\]\.pe\.switch_data_in\[2\]
*1159 gen\[2\]\.pe\.switch_data_in\[3\]
*1160 gen\[2\]\.pe\.switch_data_in\[4\]
*1161 gen\[2\]\.pe\.switch_data_in\[5\]
*1162 gen\[2\]\.pe\.switch_data_in\[6\]
*1163 gen\[2\]\.pe\.switch_data_in\[7\]
*1164 gen\[2\]\.pe\.switch_data_out\[0\]
*1165 gen\[2\]\.pe\.switch_data_out\[1\]
*1166 gen\[2\]\.pe\.switch_data_out\[2\]
*1167 gen\[2\]\.pe\.switch_data_out\[3\]
*1168 gen\[2\]\.pe\.switch_data_out\[4\]
*1169 gen\[2\]\.pe\.switch_data_out\[5\]
*1170 gen\[2\]\.pe\.switch_data_out\[6\]
*1171 gen\[2\]\.pe\.switch_data_out\[7\]
*1172 gen\[2\]\.pe\.weight\[0\]
*1173 gen\[2\]\.pe\.weight\[1\]
*1174 gen\[2\]\.pe\.weight\[2\]
*1175 gen\[2\]\.pe\.weight\[3\]
*1176 gen\[2\]\.switch\.prev_pe_fifo_in\[0\]
*1177 gen\[2\]\.switch\.prev_pe_fifo_in\[1\]
*1178 gen\[2\]\.switch\.prev_pe_fifo_in\[2\]
*1179 gen\[2\]\.switch\.prev_pe_fifo_in\[3\]
*1180 gen\[2\]\.switch\.prev_pe_fifo_in\[4\]
*1181 gen\[2\]\.switch\.prev_pe_fifo_in\[5\]
*1182 gen\[2\]\.switch\.prev_pe_fifo_in\[6\]
*1183 gen\[2\]\.switch\.prev_pe_fifo_in\[7\]
*1184 gen\[2\]\.switch\.prev_switch_fifo_in\[0\]
*1185 gen\[2\]\.switch\.prev_switch_fifo_in\[1\]
*1186 gen\[2\]\.switch\.prev_switch_fifo_in\[2\]
*1187 gen\[2\]\.switch\.prev_switch_fifo_in\[3\]
*1188 gen\[2\]\.switch\.prev_switch_fifo_in\[4\]
*1189 gen\[2\]\.switch\.prev_switch_fifo_in\[5\]
*1190 gen\[2\]\.switch\.prev_switch_fifo_in\[6\]
*1191 gen\[2\]\.switch\.prev_switch_fifo_in\[7\]
*1192 gen\[3\]\.genblk1\.fifo\.data_out\[0\]
*1193 gen\[3\]\.genblk1\.fifo\.data_out\[1\]
*1194 gen\[3\]\.genblk1\.fifo\.data_out\[2\]
*1195 gen\[3\]\.genblk1\.fifo\.data_out\[3\]
*1196 gen\[3\]\.genblk1\.fifo\.data_out\[4\]
*1197 gen\[3\]\.genblk1\.fifo\.data_out\[5\]
*1198 gen\[3\]\.genblk1\.fifo\.data_out\[6\]
*1199 gen\[3\]\.genblk1\.fifo\.data_out\[7\]
*1200 gen\[3\]\.genblk1\.fifo\.fifo\[0\]\[0\]
*1201 gen\[3\]\.genblk1\.fifo\.fifo\[0\]\[1\]
*1202 gen\[3\]\.genblk1\.fifo\.fifo\[0\]\[2\]
*1203 gen\[3\]\.genblk1\.fifo\.fifo\[0\]\[3\]
*1204 gen\[3\]\.genblk1\.fifo\.fifo\[0\]\[4\]
*1205 gen\[3\]\.genblk1\.fifo\.fifo\[0\]\[5\]
*1206 gen\[3\]\.genblk1\.fifo\.fifo\[0\]\[6\]
*1207 gen\[3\]\.genblk1\.fifo\.fifo\[0\]\[7\]
*1208 gen\[3\]\.genblk1\.fifo\.fifo\[1\]\[0\]
*1209 gen\[3\]\.genblk1\.fifo\.fifo\[1\]\[1\]
*1210 gen\[3\]\.genblk1\.fifo\.fifo\[1\]\[2\]
*1211 gen\[3\]\.genblk1\.fifo\.fifo\[1\]\[3\]
*1212 gen\[3\]\.genblk1\.fifo\.fifo\[1\]\[4\]
*1213 gen\[3\]\.genblk1\.fifo\.fifo\[1\]\[5\]
*1214 gen\[3\]\.genblk1\.fifo\.fifo\[1\]\[6\]
*1215 gen\[3\]\.genblk1\.fifo\.fifo\[1\]\[7\]
*1216 gen\[3\]\.genblk1\.fifo\.r_ptr
*1217 gen\[3\]\.genblk1\.fifo\.w_ptr
*1218 gen\[3\]\.pe\.has_next_core
*1219 gen\[3\]\.pe\.switch_data_in\[0\]
*1220 gen\[3\]\.pe\.switch_data_in\[1\]
*1221 gen\[3\]\.pe\.switch_data_in\[2\]
*1222 gen\[3\]\.pe\.switch_data_in\[3\]
*1223 gen\[3\]\.pe\.switch_data_in\[4\]
*1224 gen\[3\]\.pe\.switch_data_in\[5\]
*1225 gen\[3\]\.pe\.switch_data_in\[6\]
*1226 gen\[3\]\.pe\.switch_data_in\[7\]
*1227 gen\[3\]\.pe\.switch_data_out\[0\]
*1228 gen\[3\]\.pe\.switch_data_out\[1\]
*1229 gen\[3\]\.pe\.switch_data_out\[2\]
*1230 gen\[3\]\.pe\.switch_data_out\[3\]
*1231 gen\[3\]\.pe\.switch_data_out\[4\]
*1232 gen\[3\]\.pe\.switch_data_out\[5\]
*1233 gen\[3\]\.pe\.switch_data_out\[6\]
*1234 gen\[3\]\.pe\.switch_data_out\[7\]
*1235 gen\[3\]\.pe\.weight\[0\]
*1236 gen\[3\]\.pe\.weight\[1\]
*1237 gen\[3\]\.pe\.weight\[2\]
*1238 gen\[3\]\.pe\.weight\[3\]
*1239 gen\[3\]\.switch\.prev_pe_fifo_in\[0\]
*1240 gen\[3\]\.switch\.prev_pe_fifo_in\[1\]
*1241 gen\[3\]\.switch\.prev_pe_fifo_in\[2\]
*1242 gen\[3\]\.switch\.prev_pe_fifo_in\[3\]
*1243 gen\[3\]\.switch\.prev_pe_fifo_in\[4\]
*1244 gen\[3\]\.switch\.prev_pe_fifo_in\[5\]
*1245 gen\[3\]\.switch\.prev_pe_fifo_in\[6\]
*1246 gen\[3\]\.switch\.prev_pe_fifo_in\[7\]
*1247 gen\[3\]\.switch\.prev_switch_fifo_in\[0\]
*1248 gen\[3\]\.switch\.prev_switch_fifo_in\[1\]
*1249 gen\[3\]\.switch\.prev_switch_fifo_in\[2\]
*1250 gen\[3\]\.switch\.prev_switch_fifo_in\[3\]
*1251 gen\[3\]\.switch\.prev_switch_fifo_in\[4\]
*1252 gen\[3\]\.switch\.prev_switch_fifo_in\[5\]
*1253 gen\[3\]\.switch\.prev_switch_fifo_in\[6\]
*1254 gen\[3\]\.switch\.prev_switch_fifo_in\[7\]
*1255 net1
*1256 net10
*1257 net100
*1258 net101
*1259 net102
*1260 net103
*1261 net104
*1262 net105
*1263 net106
*1264 net107
*1265 net108
*1266 net109
*1267 net11
*1268 net110
*1269 net111
*1270 net112
*1271 net113
*1272 net114
*1273 net115
*1274 net116
*1275 net117
*1276 net118
*1277 net119
*1278 net12
*1279 net120
*1280 net121
*1281 net122
*1282 net123
*1283 net124
*1284 net125
*1285 net126
*1286 net127
*1287 net128
*1288 net129
*1289 net13
*1290 net130
*1291 net131
*1292 net132
*1293 net133
*1294 net134
*1295 net135
*1296 net136
*1297 net137
*1298 net138
*1299 net139
*1300 net14
*1301 net140
*1302 net141
*1303 net142
*1304 net143
*1305 net144
*1306 net145
*1307 net146
*1308 net147
*1309 net148
*1310 net149
*1311 net15
*1312 net150
*1313 net151
*1314 net152
*1315 net153
*1316 net154
*1317 net155
*1318 net156
*1319 net157
*1320 net158
*1321 net159
*1322 net16
*1323 net160
*1324 net161
*1325 net162
*1326 net163
*1327 net164
*1328 net165
*1329 net166
*1330 net167
*1331 net168
*1332 net169
*1333 net17
*1334 net170
*1335 net171
*1336 net172
*1337 net173
*1338 net174
*1339 net175
*1340 net176
*1341 net177
*1342 net178
*1343 net179
*1344 net18
*1345 net180
*1346 net181
*1347 net182
*1348 net183
*1349 net184
*1350 net185
*1351 net186
*1352 net187
*1353 net188
*1354 net189
*1355 net19
*1356 net190
*1357 net191
*1358 net192
*1359 net193
*1360 net194
*1361 net195
*1362 net196
*1363 net197
*1364 net198
*1365 net199
*1366 net2
*1367 net20
*1368 net200
*1369 net201
*1370 net202
*1371 net203
*1372 net204
*1373 net205
*1374 net206
*1375 net207
*1376 net208
*1377 net209
*1378 net21
*1379 net210
*1380 net211
*1381 net212
*1382 net213
*1383 net214
*1384 net215
*1385 net216
*1386 net217
*1387 net218
*1388 net219
*1389 net22
*1390 net220
*1391 net221
*1392 net222
*1393 net223
*1394 net224
*1395 net225
*1396 net226
*1397 net227
*1398 net228
*1399 net229
*1400 net23
*1401 net230
*1402 net231
*1403 net232
*1404 net233
*1405 net234
*1406 net235
*1407 net236
*1408 net237
*1409 net238
*1410 net239
*1411 net24
*1412 net240
*1413 net241
*1414 net242
*1415 net243
*1416 net244
*1417 net245
*1418 net246
*1419 net247
*1420 net248
*1421 net249
*1422 net25
*1423 net250
*1424 net251
*1425 net252
*1426 net253
*1427 net254
*1428 net255
*1429 net256
*1430 net257
*1431 net26
*1432 net27
*1433 net28
*1434 net29
*1435 net3
*1436 net30
*1437 net31
*1438 net32
*1439 net33
*1440 net34
*1441 net35
*1442 net36
*1443 net37
*1444 net38
*1445 net39
*1446 net4
*1447 net40
*1448 net41
*1449 net42
*1450 net43
*1451 net44
*1452 net5
*1453 net6
*1454 net61
*1455 net62
*1456 net63
*1457 net64
*1458 net65
*1459 net66
*1460 net67
*1461 net68
*1462 net69
*1463 net7
*1464 net70
*1465 net71
*1466 net72
*1467 net73
*1468 net74
*1469 net75
*1470 net76
*1471 net77
*1472 net78
*1473 net79
*1474 net8
*1475 net80
*1476 net81
*1477 net82
*1478 net83
*1479 net84
*1480 net85
*1481 net86
*1482 net87
*1483 net88
*1484 net89
*1485 net9
*1486 net90
*1487 net91
*1488 net92
*1489 net93
*1490 net94
*1491 net95
*1492 net96
*1493 net97
*1494 net98
*1495 net99
*1496 FILLER_0_0_109
*1497 FILLER_0_0_113
*1498 FILLER_0_0_125
*1499 FILLER_0_0_137
*1500 FILLER_0_0_141
*1501 FILLER_0_0_15
*1502 FILLER_0_0_153
*1503 FILLER_0_0_165
*1504 FILLER_0_0_169
*1505 FILLER_0_0_181
*1506 FILLER_0_0_193
*1507 FILLER_0_0_197
*1508 FILLER_0_0_209
*1509 FILLER_0_0_221
*1510 FILLER_0_0_225
*1511 FILLER_0_0_237
*1512 FILLER_0_0_249
*1513 FILLER_0_0_253
*1514 FILLER_0_0_265
*1515 FILLER_0_0_27
*1516 FILLER_0_0_277
*1517 FILLER_0_0_281
*1518 FILLER_0_0_29
*1519 FILLER_0_0_293
*1520 FILLER_0_0_3
*1521 FILLER_0_0_305
*1522 FILLER_0_0_309
*1523 FILLER_0_0_321
*1524 FILLER_0_0_333
*1525 FILLER_0_0_41
*1526 FILLER_0_0_53
*1527 FILLER_0_0_57
*1528 FILLER_0_0_69
*1529 FILLER_0_0_81
*1530 FILLER_0_0_85
*1531 FILLER_0_0_97
*1532 FILLER_0_10_103
*1533 FILLER_0_10_125
*1534 FILLER_0_10_137
*1535 FILLER_0_10_141
*1536 FILLER_0_10_15
*1537 FILLER_0_10_153
*1538 FILLER_0_10_195
*1539 FILLER_0_10_197
*1540 FILLER_0_10_201
*1541 FILLER_0_10_207
*1542 FILLER_0_10_222
*1543 FILLER_0_10_230
*1544 FILLER_0_10_27
*1545 FILLER_0_10_283
*1546 FILLER_0_10_287
*1547 FILLER_0_10_29
*1548 FILLER_0_10_3
*1549 FILLER_0_10_303
*1550 FILLER_0_10_307
*1551 FILLER_0_10_309
*1552 FILLER_0_10_321
*1553 FILLER_0_10_333
*1554 FILLER_0_10_41
*1555 FILLER_0_10_53
*1556 FILLER_0_10_65
*1557 FILLER_0_10_77
*1558 FILLER_0_10_83
*1559 FILLER_0_10_88
*1560 FILLER_0_10_94
*1561 FILLER_0_11_105
*1562 FILLER_0_11_111
*1563 FILLER_0_11_116
*1564 FILLER_0_11_128
*1565 FILLER_0_11_140
*1566 FILLER_0_11_15
*1567 FILLER_0_11_152
*1568 FILLER_0_11_160
*1569 FILLER_0_11_164
*1570 FILLER_0_11_178
*1571 FILLER_0_11_186
*1572 FILLER_0_11_195
*1573 FILLER_0_11_207
*1574 FILLER_0_11_221
*1575 FILLER_0_11_225
*1576 FILLER_0_11_237
*1577 FILLER_0_11_241
*1578 FILLER_0_11_249
*1579 FILLER_0_11_260
*1580 FILLER_0_11_27
*1581 FILLER_0_11_270
*1582 FILLER_0_11_284
*1583 FILLER_0_11_3
*1584 FILLER_0_11_310
*1585 FILLER_0_11_328
*1586 FILLER_0_11_334
*1587 FILLER_0_11_39
*1588 FILLER_0_11_51
*1589 FILLER_0_11_55